<?xml version="1.0" encoding="UTF-8"?>

<!-- generated on Wed Dec 19 20:53:33 2018 by SUMO polyconvert Version 0.30.0
<?xml version="1.0" encoding="UTF-8"?>

<configuration xmlns:xsi="http://www.w3.org/2001/XMLSchema-instance" xsi:noNamespaceSchemaLocation="polyconvertConfiguration.xsd">

    <input>
        <net-file value="sussex.net.xml"/>
        <osm-files value="map.osm"/>
        <type-file value="typemap.xml"/>
    </input>

    <output>
        <output-file value="sussex.poly.xml"/>
    </output>

    <processing>
        <poi-layer-offset value="5"/>
    </processing>

</configuration>
-->

<additional xmlns:xsi="http://www.w3.org/2001/XMLSchema-instance" xsi:noNamespaceSchemaLocation="additional_file.xsd">
    <location netOffset="-702669.56,-5637242.91" convBoundary="-11644.41,-4822.28,6796.72,5248.66" origBoundary="-0.286476,50.807298,-0.023095,50.897275" projParameter="+proj=utm +zone=30 +ellps=WGS84 +datum=WGS84 +units=m +no_defs"/>

    <poly id="10047710" type="unknown" color="51,128,255" fill="0" layer="-1.00" shape="3881.41,1745.64 3877.33,1744.06 3866.07,1739.37 3854.24,1734.72 3843.15,1730.10 3826.47,1723.75 3809.80,1717.21 3771.29,1703.73 3754.60,1697.23 3704.98,1679.47 3650.80,1660.05 3597.41,1640.70 3549.76,1624.56 3513.74,1612.32 3469.23,1598.41 3424.26,1585.38 3372.43,1571.48 3321.54,1560.80 3263.46,1550.14 3217.25,1542.23 3172.28,1540.94 3138.78,1540.04 3121.61,1539.50 3095.44,1539.04 3080.82,1538.68 3070.97,1538.50 3056.98,1538.41 3039.16,1537.98 3025.94,1537.24 3015.19,1535.33"/>
    <poly id="10048015" type="unknown" color="51,128,255" fill="0" layer="-1.00" shape="2869.34,1506.58 2861.13,1508.01 2854.09,1511.73 2846.41,1515.53 2838.39,1518.83 2829.77,1521.28 2822.23,1522.93 2812.93,1524.42 2802.38,1524.75 2789.55,1523.60 2783.93,1522.91 2777.04,1524.31 2770.57,1527.30 2765.78,1532.64 2763.62,1534.86 2760.73,1535.15 2757.02,1534.09 2755.65,1533.25 2749.14,1529.19 2746.40,1524.20 2739.26,1515.24 2735.14,1512.01 2727.32,1506.34 2717.44,1501.26 2706.07,1495.19 2691.18,1488.04 2652.21,1474.55 2624.15,1466.47 2600.97,1458.71 2585.62,1454.50 2555.28,1447.66 2548.36,1446.10 2517.73,1437.98 2475.34,1424.52 2433.71,1412.46 2413.67,1406.71 2393.40,1401.04 2360.60,1393.31 2313.83,1380.76 2282.74,1372.63 2276.51,1372.04 2268.67,1386.11 2263.37,1393.47 2258.73,1402.00 2255.51,1403.88 2251.35,1403.93 2245.59,1402.92 2241.55,1401.89 2238.28,1404.77 2235.61,1410.67 2229.19,1413.84 2218.62,1413.14 2214.16,1413.38 2207.05,1411.10 2197.28,1401.47"/>
    <poly id="10048153" type="unknown" color="51,128,255" fill="0" layer="-1.00" shape="2197.28,1401.47 2185.40,1389.06 2171.49,1375.47 2156.52,1362.65 2140.41,1348.43 2131.41,1341.79 2119.02,1332.65 2111.00,1327.67 2104.09,1323.36 2089.29,1319.25 2064.75,1309.59 2039.87,1299.38 2021.93,1292.42 2008.36,1286.99 2001.61,1284.28 1982.26,1272.23 1956.03,1254.23 1938.03,1239.42 1924.31,1228.64 1909.29,1216.55 1903.04,1211.97"/>
    <poly id="10048291" type="unknown" color="51,128,255" fill="0" layer="-1.00" shape="1642.22,967.03 1655.48,997.36 1668.25,1036.27"/>
    <poly id="10071526" type="unknown" color="51,128,255" fill="0" layer="-1.00" shape="1106.87,845.98 1088.72,914.26 1073.49,956.11 1053.89,994.17 1029.22,1025.43 1007.89,1035.72 984.20,1039.31 956.69,1040.42 917.35,1037.28 842.16,1036.45 822.16,1038.37 801.96,1051.42 793.55,1055.89 791.07,1057.76 776.48,1070.36 753.68,1105.41 743.34,1128.52 717.07,1197.64 704.11,1225.41 675.97,1309.30"/>
    <poly id="10071527" type="unknown" color="51,128,255" fill="0" layer="-1.00" shape="954.73,1125.61 954.09,1108.08 956.69,1040.42"/>
    <poly id="10071529" type="unknown" color="51,128,255" fill="0" layer="-1.00" shape="984.20,1039.31 981.51,975.74 996.39,913.34"/>
    <poly id="10071530" type="unknown" color="51,128,255" fill="0" layer="-1.00" shape="917.35,1037.28 917.93,1023.43 902.00,990.30 874.70,952.25 862.32,933.42 845.36,910.58 806.79,850.51"/>
    <poly id="10071531" type="unknown" color="51,128,255" fill="0" layer="-1.00" shape="902.00,990.30 931.75,971.65"/>
    <poly id="10071532" type="unknown" color="51,128,255" fill="0" layer="-1.00" shape="671.30,1407.59 685.70,1408.87 689.27,1406.52 692.72,1399.63 734.69,1321.98 742.50,1308.26 776.11,1221.05 792.26,1179.17 807.68,1151.22 820.10,1135.16 833.80,1122.87 850.80,1113.80 872.00,1108.86 913.80,1107.36 954.09,1108.08"/>
    <poly id="10071534" type="unknown" color="51,128,255" fill="0" layer="-1.00" shape="488.65,1768.54 474.67,1754.55 397.21,1744.30 350.65,1721.44 349.24,1720.75 323.85,1686.77 313.11,1672.39 291.08,1633.60 285.90,1604.12 288.60,1570.72 300.06,1493.54 311.47,1414.10 326.03,1320.53 335.15,1289.30 354.62,1270.66 367.97,1265.00 394.98,1259.68 481.45,1274.37 519.69,1280.77 560.43,1288.73 623.35,1299.52 630.97,1300.93 675.97,1309.30 734.69,1321.98 752.03,1332.43"/>
    <poly id="10073388" type="unknown" color="51,128,255" fill="0" layer="-1.00" shape="666.51,992.40 745.55,1019.07 765.80,1016.55"/>
    <poly id="10073389" type="unknown" color="51,128,255" fill="0" layer="-1.00" shape="765.80,1016.55 793.55,1055.89"/>
    <poly id="10073394" type="unknown" color="51,128,255" fill="0" layer="-1.00" shape="776.48,1070.36 686.33,1039.72 679.93,1038.34 656.20,1038.95"/>
    <poly id="10073402" type="unknown" color="51,128,255" fill="0" layer="-1.00" shape="743.34,1128.52 682.20,1108.12 668.67,1107.79 654.19,1115.19 627.55,1133.91 606.35,1148.94 590.03,1173.98 578.43,1196.93"/>
    <poly id="10074056" type="unknown" color="51,128,255" fill="1" layer="-1.00" shape="755.93,1441.55 755.02,1443.37 754.76,1445.38 755.19,1447.37 756.26,1449.09 757.71,1450.29 759.45,1450.98 761.33,1451.11 763.15,1450.64 764.75,1449.64 765.95,1448.20 766.65,1446.46 764.00,1440.04 762.41,1439.34 760.68,1439.11 758.96,1439.39 757.39,1440.15 755.93,1441.55"/>
    <poly id="10074057" type="unknown" color="51,128,255" fill="0" layer="-1.00" shape="703.59,1412.91 757.39,1440.15"/>
    <poly id="10074058" type="unknown" color="51,128,255" fill="0" layer="-1.00" shape="756.26,1449.09 738.73,1468.39 712.80,1494.47 716.49,1505.99 734.55,1505.47 761.91,1494.49"/>
    <poly id="10074061" type="unknown" color="51,128,255" fill="0" layer="-1.00" shape="853.60,1351.26 874.61,1314.92 886.98,1301.00 902.14,1288.15 909.07,1283.02 914.24,1282.69 919.56,1286.48 931.59,1295.21 944.91,1308.72 957.69,1324.76"/>
    <poly id="10074063" type="unknown" color="51,128,255" fill="0" layer="-1.00" shape="766.65,1446.46 772.53,1444.12 791.16,1428.60 803.38,1416.51 814.13,1403.87 820.25,1395.17 853.60,1351.26"/>
    <poly id="10074067" type="unknown" color="51,128,255" fill="0" layer="-1.00" shape="965.97,1310.71 957.69,1324.76 932.07,1347.88 896.83,1369.30"/>
    <poly id="102903176" type="leisure" color="207,245,201" fill="1" layer="0.00" shape="2758.26,1699.27 2793.97,1645.61 2902.16,1717.72 2865.06,1771.16 2758.26,1699.27"/>
    <poly id="102903179" type="leisure" color="207,245,201" fill="1" layer="0.00" shape="2772.64,2004.01 2746.58,2060.66 2653.02,2017.94 2679.85,1960.95 2711.43,1975.60 2772.64,2004.01"/>
    <poly id="102903179#1" type="sport" color="79,230,125" fill="1" layer="2.00" shape="2772.64,2004.01 2746.58,2060.66 2653.02,2017.94 2679.85,1960.95 2711.43,1975.60 2772.64,2004.01"/>
    <poly id="102903181" type="leisure" color="207,245,201" fill="1" layer="0.00" shape="2919.43,1650.87 2983.70,1665.98 2975.68,1699.99 2911.40,1684.88 2919.43,1650.87"/>
    <poly id="102903181#1" type="sport" color="79,230,125" fill="1" layer="2.00" shape="2919.43,1650.87 2983.70,1665.98 2975.68,1699.99 2911.40,1684.88 2919.43,1650.87"/>
    <poly id="102903185" type="leisure" color="207,245,201" fill="1" layer="0.00" shape="2871.40,1793.49 2913.44,1738.17 2947.64,1764.02 2905.60,1819.34 2871.40,1793.49"/>
    <poly id="102903187" type="leisure" color="207,245,201" fill="1" layer="0.00" shape="2931.18,1735.41 2939.96,1702.22 2972.59,1709.89 2963.63,1743.74 2931.18,1735.41"/>
    <poly id="102903187#1" type="sport" color="79,230,125" fill="1" layer="2.00" shape="2931.18,1735.41 2939.96,1702.22 2972.59,1709.89 2963.63,1743.74 2931.18,1735.41"/>
    <poly id="102905863" type="building" color="255,230,230" fill="1" layer="2.00" shape="2090.23,1565.20 2091.66,1567.23 2092.65,1568.45 2093.72,1569.54 2095.58,1570.93 2097.01,1571.83 2098.99,1572.90 2101.75,1573.85 2103.71,1574.31 2105.93,1574.59 2108.48,1574.59 2110.23,1574.42 2111.75,1574.16 2113.99,1573.58 2115.53,1572.98 2117.56,1571.88 2115.56,1567.73 2116.81,1567.00 2118.17,1565.88 2119.51,1564.52 2120.24,1563.75 2121.29,1562.11 2122.70,1558.99 2128.10,1559.72 2128.49,1558.32 2128.93,1556.69 2129.13,1555.16 2130.07,1554.97 2130.91,1554.52 2131.51,1553.95 2131.94,1553.25 2132.23,1552.16 2132.13,1551.03 2131.68,1550.06 2130.94,1549.28 2130.10,1548.82 2129.15,1548.61 2128.54,1546.16 2127.86,1544.25 2126.95,1542.19 2126.44,1541.16 2127.07,1540.50 2127.56,1539.74 2127.94,1538.74 2128.12,1537.14 2127.85,1535.81 2127.07,1534.41 2125.88,1533.34 2124.97,1532.87 2123.97,1532.61 2122.60,1532.59 2121.28,1532.94 2120.42,1533.41 2119.68,1534.04 2117.21,1532.62 2114.93,1531.68 2112.47,1530.92 2109.90,1530.49 2106.87,1530.32 2103.93,1530.59 2103.72,1529.66 2103.28,1528.82 2102.77,1528.25 2102.15,1527.81 2101.27,1527.45 2100.30,1527.34 2099.53,1527.46 2098.80,1527.73 2098.09,1528.20 2097.53,1528.84 2097.12,1529.59 2096.89,1530.62 2096.97,1531.67 2097.20,1532.33 2097.57,1532.95 2098.23,1533.63 2099.06,1534.12 2100.15,1534.37 2101.26,1534.28 2102.67,1538.78 2101.17,1539.38 2100.10,1539.87 2098.80,1540.66 2097.75,1541.39 2095.68,1543.17 2094.25,1544.67 2097.68,1547.83 2096.96,1548.97 2096.41,1550.23 2095.96,1551.52 2095.71,1552.84 2095.55,1554.80 2095.76,1556.58 2096.14,1557.94 2096.47,1559.07 2097.03,1560.33 2097.70,1561.35 2090.23,1565.20"/>
    <poly id="102905864" type="building" color="255,230,230" fill="1" layer="2.00" shape="2185.68,1503.31 2181.67,1520.10 2172.98,1518.04 2169.74,1531.61 2178.72,1533.73 2173.06,1557.49 2171.59,1563.65 2201.82,1570.81 2205.74,1571.74 2203.20,1582.44 2211.43,1584.39 2213.75,1574.64 2234.32,1579.52 2236.01,1572.42 2248.90,1518.29 2215.95,1510.48 2201.09,1506.96 2185.68,1503.31"/>
    <poly id="102905865" type="amenity" color="237,199,199" fill="1" layer="2.00" shape="2252.23,1608.81 2253.01,1612.73 2252.50,1616.70 2250.76,1620.29 2247.95,1623.16 2244.39,1624.99 2240.42,1625.60 2236.25,1624.84 2232.57,1622.73 2229.81,1619.51 2228.28,1615.55 2228.18,1611.32 2229.51,1607.30 2232.11,1603.95 2235.69,1601.66 2239.59,1600.72 2243.58,1601.07 2247.27,1602.65 2250.25,1605.33 2252.23,1608.81"/>
    <poly id="102905865#1" type="building" color="255,230,230" fill="1" layer="2.00" shape="2252.23,1608.81 2253.01,1612.73 2252.50,1616.70 2250.76,1620.29 2247.95,1623.16 2244.39,1624.99 2240.42,1625.60 2236.25,1624.84 2232.57,1622.73 2229.81,1619.51 2228.28,1615.55 2228.18,1611.32 2229.51,1607.30 2232.11,1603.95 2235.69,1601.66 2239.59,1600.72 2243.58,1601.07 2247.27,1602.65 2250.25,1605.33 2252.23,1608.81"/>
    <poly id="103010088" type="building" color="255,230,230" fill="1" layer="2.00" shape="2281.74,2231.70 2287.69,2233.15 2290.82,2220.33 2284.87,2218.88 2281.74,2231.70"/>
    <poly id="103010089" type="building" color="255,230,230" fill="1" layer="2.00" shape="2281.32,2199.65 2290.34,2202.09 2292.60,2193.74 2283.58,2191.31 2283.06,2193.26 2281.32,2199.65"/>
    <poly id="103010090" type="building" color="255,230,230" fill="1" layer="2.00" shape="2247.61,2305.31 2248.98,2298.57 2254.67,2299.72 2253.30,2306.46 2247.61,2305.31"/>
    <poly id="103010091" type="building" color="255,230,230" fill="1" layer="2.00" shape="2190.74,2188.30 2198.61,2190.26 2200.43,2182.96 2192.56,2181.00 2190.74,2188.30"/>
    <poly id="103010092" type="building" color="255,230,230" fill="1" layer="2.00" shape="2268.46,2293.73 2274.41,2295.18 2277.54,2282.37 2271.59,2280.91 2268.46,2293.73"/>
    <poly id="103010093" type="building" color="255,230,230" fill="1" layer="2.00" shape="2235.68,2232.48 2243.54,2234.43 2245.36,2227.15 2237.51,2225.19 2236.18,2230.37 2235.68,2232.48"/>
    <poly id="103010094" type="building" color="255,230,230" fill="1" layer="2.00" shape="2217.95,2256.51 2219.32,2249.76 2225.01,2250.91 2224.53,2253.31 2223.65,2257.65 2217.95,2256.51"/>
    <poly id="103010095" type="building" color="255,230,230" fill="1" layer="2.00" shape="2232.22,2194.46 2240.08,2196.41 2240.49,2194.77 2241.90,2189.11 2234.04,2187.15 2232.22,2194.46"/>
    <poly id="103010096" type="building" color="255,230,230" fill="1" layer="2.00" shape="2218.38,2223.28 2225.47,2225.11 2231.85,2200.67 2224.77,2198.83 2218.38,2223.28"/>
    <poly id="103010097" type="building" color="255,230,230" fill="1" layer="2.00" shape="2209.34,2249.44 2211.20,2241.53 2214.47,2242.17 2219.12,2243.39 2217.26,2251.29 2209.34,2249.44"/>
    <poly id="103010098" type="building" color="255,230,230" fill="1" layer="2.00" shape="2284.82,2216.67 2290.78,2218.12 2293.91,2205.30 2287.96,2203.85 2284.82,2216.67"/>
    <poly id="103010099" type="building" color="255,230,230" fill="1" layer="2.00" shape="2271.37,2199.07 2280.94,2201.49 2281.32,2199.65 2283.06,2193.26 2273.47,2190.82 2272.90,2193.05 2271.37,2199.07"/>
    <poly id="103010100" type="building" color="255,230,230" fill="1" layer="2.00" shape="2253.69,2308.77 2255.05,2302.02 2260.74,2303.17 2259.38,2309.92 2253.69,2308.77"/>
    <poly id="103010101" type="building" color="255,230,230" fill="1" layer="2.00" shape="2182.68,2185.33 2189.20,2186.89 2190.94,2179.70 2184.42,2178.14 2182.68,2185.33"/>
    <poly id="103010102" type="building" color="255,230,230" fill="1" layer="2.00" shape="2271.78,2277.89 2277.73,2279.34 2280.87,2266.53 2274.92,2265.08 2271.78,2277.89"/>
    <poly id="103010103" type="building" color="255,230,230" fill="1" layer="2.00" shape="2226.90,2228.00 2236.18,2230.37 2237.51,2225.19 2238.11,2222.83 2228.83,2220.46 2226.90,2228.00"/>
    <poly id="103010104" type="building" color="255,230,230" fill="1" layer="2.00" shape="2203.71,2232.58 2205.14,2225.86 2211.79,2227.27 2210.37,2233.98 2203.71,2232.58"/>
    <poly id="103010105" type="building" color="255,230,230" fill="1" layer="2.00" shape="2218.12,2193.68 2225.98,2195.63 2227.81,2188.33 2219.94,2186.37 2218.12,2193.68"/>
    <poly id="103010106" type="building" color="255,230,230" fill="1" layer="2.00" shape="2246.14,2262.29 2253.22,2264.13 2259.59,2239.70 2252.51,2237.86 2246.14,2262.29"/>
    <poly id="103010107" type="building" color="255,230,230" fill="1" layer="2.00" shape="2214.47,2242.17 2216.44,2234.73 2222.21,2236.25 2220.25,2243.69 2219.12,2243.39 2214.47,2242.17"/>
    <poly id="103010108" type="building" color="255,230,230" fill="1" layer="2.00" shape="2248.73,2218.11 2255.87,2220.06 2261.12,2200.77 2253.98,2198.83 2253.25,2201.49 2248.73,2218.11"/>
    <poly id="103010109" type="building" color="255,230,230" fill="1" layer="2.00" shape="2263.21,2198.39 2271.07,2200.34 2271.37,2199.07 2272.90,2193.05 2265.03,2191.09 2263.21,2198.39"/>
    <poly id="103010110" type="building" color="255,230,230" fill="1" layer="2.00" shape="2255.33,2272.88 2256.69,2266.14 2262.38,2267.28 2261.01,2274.02 2255.33,2272.88"/>
    <poly id="103010112" type="building" color="255,230,230" fill="1" layer="2.00" shape="2275.34,2262.29 2281.30,2263.74 2284.44,2250.92 2278.48,2249.48 2275.34,2262.29"/>
    <poly id="103010113" type="building" color="255,230,230" fill="1" layer="2.00" shape="2257.74,2235.89 2265.60,2237.83 2267.42,2230.53 2259.56,2228.57 2257.74,2235.89"/>
    <poly id="103010114" type="building" color="255,230,230" fill="1" layer="2.00" shape="2198.66,2228.25 2200.02,2221.52 2205.71,2222.66 2204.35,2229.40 2198.66,2228.25"/>
    <poly id="103010115" type="building" color="255,230,230" fill="1" layer="2.00" shape="2208.47,2193.17 2217.68,2195.52 2219.51,2188.22 2210.29,2185.96 2208.47,2193.17"/>
    <poly id="103010116" type="building" color="255,230,230" fill="1" layer="2.00" shape="2259.01,2326.49 2264.96,2327.94 2268.09,2315.14 2262.14,2313.68 2259.01,2326.49"/>
    <poly id="103010117" type="building" color="255,230,230" fill="1" layer="2.00" shape="2216.44,2234.73 2214.97,2234.34 2217.07,2226.50 2225.23,2228.67 2223.13,2236.50 2222.21,2236.25 2216.44,2234.73"/>
    <poly id="103010118" type="building" color="255,230,230" fill="1" layer="2.00" shape="2229.20,2264.04 2229.77,2261.55 2230.67,2257.52 2237.25,2258.99 2235.78,2265.53 2229.20,2264.04"/>
    <poly id="103010119" type="building" color="255,230,230" fill="1" layer="2.00" shape="2250.76,2195.45 2258.62,2197.41 2260.44,2190.11 2252.58,2188.15 2250.76,2195.45"/>
    <poly id="103010120" type="building" color="255,230,230" fill="1" layer="2.00" shape="2261.40,2276.33 2262.76,2269.59 2268.45,2270.74 2267.08,2277.47 2261.40,2276.33"/>
    <poly id="103010121" type="building" color="255,230,230" fill="1" layer="2.00" shape="2238.95,2288.50 2246.37,2290.23 2250.18,2274.03 2242.76,2272.31 2238.95,2288.50"/>
    <poly id="103010122" type="building" color="255,230,230" fill="1" layer="2.00" shape="2278.76,2246.91 2284.71,2248.36 2287.85,2235.55 2281.89,2234.10 2278.76,2246.91"/>
    <poly id="103010123" type="building" color="255,230,230" fill="1" layer="2.00" shape="2264.94,2240.62 2272.80,2242.57 2274.63,2235.28 2266.76,2233.32 2264.94,2240.62"/>
    <poly id="103010124" type="building" color="255,230,230" fill="1" layer="2.00" shape="2193.23,2225.34 2194.61,2218.61 2200.29,2219.76 2198.92,2226.49 2193.23,2225.34"/>
    <poly id="103010125" type="building" color="255,230,230" fill="1" layer="2.00" shape="2200.12,2193.19 2207.98,2195.14 2208.47,2193.17 2209.80,2187.84 2201.94,2185.88 2200.12,2193.19"/>
    <poly id="103010126" type="building" color="255,230,230" fill="1" layer="2.00" shape="2264.64,2309.12 2270.60,2310.57 2273.73,2297.76 2267.77,2296.31 2264.64,2309.12"/>
    <poly id="103010127" type="building" color="255,230,230" fill="1" layer="2.00" shape="2252.52,2232.79 2254.16,2226.12 2259.80,2227.50 2258.15,2234.19 2252.52,2232.79"/>
    <poly id="103010128" type="building" color="255,230,230" fill="1" layer="2.00" shape="2223.13,2260.23 2223.65,2257.65 2224.53,2253.31 2231.15,2254.66 2230.67,2257.52 2229.77,2261.55 2223.13,2260.23"/>
    <poly id="103010129" type="building" color="255,230,230" fill="1" layer="2.00" shape="2240.49,2194.77 2250.33,2197.27 2252.16,2189.97 2242.36,2187.41 2240.49,2194.77"/>
    <poly id="103010130" type="building" color="255,230,230" fill="1" layer="2.00" shape="2184.71,2218.60 2191.92,2220.42 2198.22,2195.63 2191.02,2193.80 2184.71,2218.60"/>
    <poly id="103010131" type="building" color="255,230,230" fill="1" layer="2.00" shape="2240.47,2297.16 2241.83,2290.42 2247.52,2291.56 2246.16,2298.29 2240.47,2297.16"/>
    <poly id="103304695" type="building" color="255,230,230" fill="1" layer="2.00" shape="2098.36,1699.47 2116.85,1703.83 2114.51,1713.46 2095.38,1708.83 2093.86,1715.08 2092.30,1714.70 2090.87,1720.60 2088.92,1720.13 2087.87,1724.42 2089.83,1724.90 2086.21,1740.06 2076.00,1737.63 2079.09,1724.66 2077.08,1724.18 2078.72,1717.26 2080.69,1717.73 2082.13,1711.67 2084.24,1712.17 2085.62,1706.32 2071.34,1702.96 2070.52,1706.46 2067.19,1705.67 2065.94,1702.86 2064.40,1703.53 2062.87,1704.22 2059.88,1717.67 2048.66,1724.39 2036.39,1721.46 2029.39,1709.78 2032.53,1697.18 2044.15,1690.00 2055.08,1692.47 2056.03,1688.32 2054.44,1687.95 2052.24,1683.81 2053.17,1679.43 2057.93,1676.22 2062.24,1677.05 2065.30,1681.18 2064.24,1686.54 2068.54,1687.38 2070.57,1690.95 2070.15,1692.82 2078.35,1694.75 2098.36,1699.47"/>
    <poly id="103304696" type="unknown" color="51,128,255" fill="1" layer="-1.00" shape="2215.19,1657.29 2217.89,1646.19 2218.58,1643.39 2198.03,1638.31 2185.60,1635.30 2182.19,1649.31 2215.19,1657.29"/>
    <poly id="103304698" type="building" color="255,230,230" fill="1" layer="2.00" shape="2300.23,1569.69 2310.06,1528.99 2311.03,1524.93 2311.44,1523.26 2313.57,1514.46 2326.48,1517.56 2324.94,1523.93 2354.42,1531.02 2355.68,1525.82 2368.91,1529.00 2363.62,1550.92 2350.38,1547.73 2351.27,1544.04 2322.79,1537.19 2314.14,1573.03 2300.23,1569.69"/>
    <poly id="103304699" type="unknown" color="51,128,255" fill="0" layer="-1.00" shape="2182.27,1649.27 2162.81,1644.30"/>
    <poly id="103304700" type="building" color="255,230,230" fill="1" layer="2.00" shape="2042.38,1713.23 2048.50,1714.70 2053.41,1711.77 2054.69,1706.08 2051.63,1701.62 2045.49,1700.18 2040.82,1702.99 2039.55,1708.70 2042.38,1713.23"/>
    <poly id="103304703" type="building" color="255,230,230" fill="1" layer="2.00" shape="2320.31,1687.77 2319.68,1684.97 2316.17,1684.67 2313.34,1683.50 2310.97,1681.58 2309.40,1679.39 2308.43,1676.88 2308.12,1673.99 2308.83,1670.47 2309.66,1668.78 2310.78,1667.27 2312.29,1665.85 2314.06,1664.76 2315.94,1664.03 2317.92,1663.67 2318.18,1667.41 2319.69,1667.22 2321.58,1667.35 2323.41,1667.83 2325.40,1668.79 2327.13,1670.15 2328.66,1672.06 2329.70,1674.28 2330.21,1677.04 2329.96,1679.84 2329.06,1682.24 2327.61,1684.34 2326.01,1685.81 2324.13,1686.89 2322.26,1687.52 2320.31,1687.77"/>
    <poly id="103385814" type="building" color="255,230,230" fill="1" layer="2.00" shape="2127.50,2247.17 2139.70,2250.33 2136.05,2264.34 2132.84,2263.50 2131.47,2267.94 2124.36,2271.10 2121.63,2272.21 2119.09,2271.41 2118.40,2273.44 2107.64,2269.80 2106.93,2272.01 2093.16,2267.62 2093.97,2265.27 2091.93,2264.58 2091.10,2263.48 2086.70,2254.59 2088.14,2250.49 2084.72,2249.41 2088.20,2237.85 2091.89,2225.99 2094.57,2226.82 2095.67,2223.31 2105.72,2217.24 2109.14,2218.32 2110.10,2215.27 2123.84,2219.60 2119.99,2231.74 2107.24,2227.73 2107.84,2225.84 2107.35,2224.99 2102.34,2227.81 2101.98,2229.02 2103.91,2229.59 2100.30,2241.59 2099.47,2241.33 2096.03,2251.74 2095.28,2253.97 2096.74,2256.89 2108.58,2260.69 2109.40,2258.26 2121.31,2262.25 2120.51,2264.68 2121.35,2264.99 2125.82,2263.00 2126.24,2261.80 2123.85,2261.17 2127.50,2247.17"/>
    <poly id="103385815" type="unknown" color="51,128,255" fill="0" layer="-1.00" shape="2221.06,2279.39 2223.71,2282.94 2229.91,2290.47 2235.85,2297.45"/>
    <poly id="103385816" type="parking" color="184,184,179" fill="1" layer="-2.00" shape="2159.89,1377.47 2200.80,1417.28 2202.02,1419.78 2202.82,1423.58 2201.40,1426.89 2183.33,1447.88 2180.25,1449.46 2177.61,1449.35 2175.05,1448.24 2167.84,1437.86 2166.78,1436.35 2164.46,1433.00 2160.83,1429.08 2156.26,1425.14 2151.11,1421.54 2140.77,1415.29 2156.49,1384.20 2159.89,1377.47"/>
    <poly id="103385817" type="unknown" color="51,128,255" fill="0" layer="-1.00" shape="2223.71,2282.94 2215.82,2285.12 2214.37,2285.96 2213.64,2286.90 2210.99,2292.89 2210.76,2293.68 2210.44,2294.71 2210.27,2295.27 2209.93,2295.75 2209.44,2296.09 2208.87,2296.23 2208.28,2296.19 2207.74,2295.94 2207.32,2295.54 2207.05,2295.00 2206.86,2294.38 2206.42,2293.51 2201.37,2286.38 2200.88,2285.56 2200.55,2284.82 2200.46,2284.39 2200.23,2284.01 2199.89,2283.71 2199.48,2283.54 2199.04,2283.51 2198.61,2283.61 2198.21,2283.85 2197.92,2284.21 2197.76,2284.64 2197.75,2285.10 2197.89,2285.54 2198.06,2286.35 2198.48,2291.27 2198.59,2292.03 2198.71,2292.87 2198.79,2293.32 2198.72,2293.78 2198.53,2294.20 2198.21,2294.53 2197.81,2294.76 2197.31,2294.86 2196.82,2294.79 2196.37,2294.56 2196.02,2294.20 2195.81,2293.75 2195.54,2292.84 2195.37,2292.27 2192.32,2285.35 2191.03,2283.63 2189.95,2282.78 2188.72,2282.16 2187.53,2281.83 2186.31,2281.72 2183.99,2282.12 2178.37,2284.33"/>
    <poly id="103385819" type="unknown" color="51,128,255" fill="0" layer="-1.00" shape="2169.28,2207.61 2172.74,2210.76 2176.20,2214.30 2221.06,2279.39 2225.66,2277.88 2229.49,2276.32 2232.40,2274.56 2234.95,2272.21 2237.13,2269.47 2238.98,2265.96 2240.69,2260.75 2247.06,2233.48"/>
    <poly id="103420010" type="building" color="255,230,230" fill="1" layer="2.00" shape="2030.00,2200.65 2041.21,2203.04 2042.92,2195.08 2037.18,2193.85 2038.74,2186.61 2032.13,2185.19 2033.53,2178.63 2021.17,2175.98 2019.56,2183.48 2026.47,2184.95 2025.07,2191.50 2031.67,2192.91 2030.00,2200.65"/>
    <poly id="103420012" type="building" color="255,230,230" fill="1" layer="2.00" shape="2049.15,2180.47 2058.69,2182.59 2060.13,2176.12 2053.77,2174.70 2055.33,2167.75 2049.12,2166.36 2050.58,2159.84 2043.81,2158.33 2045.50,2150.82 2038.98,2149.37 2040.55,2142.33 2034.36,2140.95 2035.78,2134.66 2025.60,2132.39 2024.20,2138.63 2030.61,2140.07 2029.00,2147.26 2035.97,2148.82 2034.40,2155.86 2040.91,2157.31 2039.43,2163.94 2045.93,2165.39 2044.42,2172.13 2050.70,2173.54 2049.15,2180.47"/>
    <poly id="103420015" type="building" color="255,230,230" fill="1" layer="2.00" shape="2136.46,2072.54 2134.84,2079.86 2130.59,2078.93 2126.75,2096.30 2105.13,2091.54 2104.41,2094.83 2101.31,2094.14 2102.81,2087.31 2106.78,2088.18 2110.57,2070.99 2131.66,2075.63 2132.52,2071.68 2136.46,2072.54"/>
    <poly id="103420016" type="amenity" color="237,199,199" fill="1" layer="2.00" shape="2174.74,2118.74 2183.29,2120.88 2187.55,2103.92 2177.93,2101.52 2175.21,2112.32 2173.14,2111.80 2173.98,2108.49 2165.26,2106.30 2168.65,2092.80 2176.10,2094.66 2175.43,2097.33 2184.67,2099.63 2188.27,2085.29 2178.63,2082.87 2177.98,2085.44 2177.45,2087.58 2170.26,2085.78 2160.10,2083.24 2151.89,2115.91 2162.29,2118.50 2162.83,2116.36 2172.27,2118.72 2173.10,2115.40 2175.43,2115.98 2174.74,2118.74"/>
    <poly id="103420016#1" type="building" color="255,230,230" fill="1" layer="2.00" shape="2174.74,2118.74 2183.29,2120.88 2187.55,2103.92 2177.93,2101.52 2175.21,2112.32 2173.14,2111.80 2173.98,2108.49 2165.26,2106.30 2168.65,2092.80 2176.10,2094.66 2175.43,2097.33 2184.67,2099.63 2188.27,2085.29 2178.63,2082.87 2177.98,2085.44 2177.45,2087.58 2170.26,2085.78 2160.10,2083.24 2151.89,2115.91 2162.29,2118.50 2162.83,2116.36 2172.27,2118.72 2173.10,2115.40 2175.43,2115.98 2174.74,2118.74"/>
    <poly id="103420018" type="building" color="255,230,230" fill="1" layer="2.00" shape="2010.95,2053.94 2021.34,2056.10 2019.99,2062.62 2025.98,2063.86 2024.54,2070.75 2031.13,2072.11 2029.61,2079.39 2036.07,2080.72 2034.61,2087.76 2041.17,2089.12 2039.66,2096.39 2045.65,2097.63 2044.20,2104.63 2033.91,2102.49 2035.41,2095.27 2029.41,2094.03 2030.86,2087.08 2024.44,2085.75 2025.85,2078.96 2019.13,2077.57 2020.59,2070.55 2014.40,2069.27 2015.84,2062.34 2009.47,2061.02 2010.95,2053.94"/>
    <poly id="103420022" type="building" color="255,230,230" fill="1" layer="2.00" shape="2065.18,2170.00 2074.82,2171.96 2076.12,2165.62 2082.86,2166.99 2084.22,2160.36 2091.02,2161.74 2092.39,2155.04 2081.85,2152.90 2080.47,2159.68 2074.03,2158.37 2072.72,2164.80 2066.50,2163.53 2065.18,2170.00"/>
    <poly id="103420025" type="building" color="255,230,230" fill="1" layer="2.00" shape="2103.32,2100.33 2104.19,2096.61 2099.34,2095.49 2098.44,2099.36 2094.70,2098.50 2096.54,2090.58 2099.83,2091.34 2100.97,2086.48 2097.64,2085.71 2103.90,2058.81 2133.93,2065.76 2134.54,2063.13 2153.86,2067.60 2149.52,2086.26 2139.18,2083.86 2133.35,2108.93 2127.99,2107.68 2128.35,2106.13 2103.32,2100.33"/>
    <poly id="103420028" type="building" color="255,230,230" fill="1" layer="2.00" shape="2012.10,2219.84 2020.22,2221.75 2022.35,2222.25 2026.40,2205.09 2020.34,2203.67 2021.95,2196.89 2015.41,2195.35 2016.96,2188.79 2010.28,2187.22 2011.81,2180.73 2003.72,2178.83 2007.51,2162.76 2000.68,2161.17 1997.04,2160.31 1993.01,2177.39 1999.30,2178.87 1997.77,2185.37 2004.70,2187.00 2003.11,2193.75 2010.27,2195.44 2008.70,2202.07 2015.90,2203.75 2012.10,2219.84"/>
    <poly id="103420030" type="building" color="255,230,230" fill="1" layer="2.00" shape="2048.84,2112.64 2056.94,2114.37 2055.40,2121.55 2060.91,2122.73 2062.30,2116.24 2070.11,2117.91 2067.02,2132.33 2058.99,2130.62 2060.01,2125.88 2054.09,2124.61 2053.02,2129.61 2057.61,2130.60 2056.07,2137.74 2062.91,2139.21 2061.36,2146.44 2067.48,2147.74 2065.88,2155.17 2055.62,2152.99 2057.10,2146.11 2051.51,2144.91 2053.07,2137.62 2046.68,2136.26 2048.34,2128.48 2045.57,2127.88 2048.84,2112.64"/>
    <poly id="103420032" type="building" color="255,230,230" fill="1" layer="2.00" shape="1977.00,2239.74 1988.82,2242.59 1990.41,2236.03 1997.47,2237.72 1999.18,2230.70 2005.81,2232.29 2006.57,2229.14 2007.69,2224.50 1995.52,2221.56 1993.92,2228.17 1987.83,2226.71 1986.26,2233.16 1979.02,2231.42 1977.00,2239.74"/>
    <poly id="103420035" type="building" color="255,230,230" fill="1" layer="2.00" shape="1996.21,2251.11 2007.98,2253.89 2009.40,2247.90 2015.71,2249.39 2017.29,2242.75 2024.05,2244.34 2025.68,2237.44 2032.77,2239.11 2034.43,2232.14 2041.09,2233.71 2042.43,2228.08 2049.22,2229.67 2053.36,2212.20 2042.88,2209.73 2039.37,2224.51 2030.78,2222.48 2029.14,2229.42 2022.70,2227.89 2021.12,2234.57 2014.68,2233.05 2013.03,2240.01 2005.50,2238.24 2003.94,2244.77 1998.04,2243.38 1996.21,2251.11"/>
    <poly id="103420043" type="building" color="255,230,230" fill="1" layer="2.00" shape="2015.83,2122.95 2025.15,2124.81 2026.65,2117.31 2023.11,2116.60 2023.46,2114.82 2027.33,2115.58 2028.86,2107.88 2022.42,2106.60 2023.75,2099.99 2017.73,2098.78 2019.01,2092.38 2012.68,2091.12 2014.17,2083.68 2007.69,2082.39 2009.08,2075.45 2006.77,2074.99 1998.94,2073.42 1997.54,2080.45 2004.39,2081.81 2003.04,2088.56 2009.15,2089.78 2007.74,2096.84 2014.14,2098.11 2012.74,2105.13 2019.14,2106.41 2015.83,2122.95"/>