<?xml version="1.0" encoding="UTF-8"?>

<!-- generated on Wed Dec 19 20:48:18 2018 by SUMO netconvert Version 0.30.0
<?xml version="1.0" encoding="UTF-8"?>

<configuration xmlns:xsi="http://www.w3.org/2001/XMLSchema-instance" xsi:noNamespaceSchemaLocation="netconvertConfiguration.xsd">

    <input>
        <osm-files value="map.osm"/>
    </input>

    <output>
        <output-file value="sussex.net.xml"/>
    </output>

    <projection>
        <proj.utm value="true"/>
    </projection>

</configuration>
-->

<net version="0.27" xmlns:xsi="http://www.w3.org/2001/XMLSchema-instance" xsi:noNamespaceSchemaLocation="net_file.xsd">

    <location netOffset="-702669.56,-5637242.91" convBoundary="0.00,0.00,6796.72,5248.66" origBoundary="-0.119323,50.850484,-0.023095,50.897275" projParameter="+proj=utm +zone=30 +ellps=WGS84 +datum=WGS84 +units=m +no_defs"/>

    <type id="highway.bridleway" priority="1" numLanes="1" speed="2.78" allow="pedestrian" oneway="1" width="2.00"/>
    <type id="highway.bus_guideway" priority="1" numLanes="1" speed="8.33" allow="bus" oneway="1"/>
    <type id="highway.cycleway" priority="1" numLanes="1" speed="5.56" allow="bicycle" oneway="0" width="1.00"/>
    <type id="highway.footway" priority="1" numLanes="1" speed="2.78" allow="pedestrian" oneway="1" width="2.00"/>
    <type id="highway.ford" priority="1" numLanes="1" speed="2.78" allow="army" oneway="0"/>
    <type id="highway.living_street" priority="3" numLanes="1" speed="2.78" disallow="tram rail_urban rail rail_electric ship" oneway="0"/>
    <type id="highway.motorway" priority="13" numLanes="2" speed="44.44" allow="private emergency authority army vip passenger hov taxi bus coach delivery truck trailer motorcycle evehicle custom1 custom2" oneway="1"/>
    <type id="highway.motorway_link" priority="12" numLanes="1" speed="22.22" allow="private emergency authority army vip passenger hov taxi bus coach delivery truck trailer motorcycle evehicle custom1 custom2" oneway="1"/>
    <type id="highway.path" priority="1" numLanes="1" speed="2.78" allow="bicycle pedestrian" oneway="1" width="2.00"/>
    <type id="highway.pedestrian" priority="1" numLanes="1" speed="2.78" allow="pedestrian" oneway="1" width="2.00"/>
    <type id="highway.primary" priority="9" numLanes="2" speed="27.78" disallow="tram rail_urban rail rail_electric ship" oneway="0"/>
    <type id="highway.primary_link" priority="8" numLanes="1" speed="22.22" disallow="tram rail_urban rail rail_electric ship" oneway="0"/>
    <type id="highway.raceway" priority="14" numLanes="2" speed="83.33" allow="vip" oneway="0"/>
    <type id="highway.residential" priority="4" numLanes="1" speed="13.89" disallow="tram rail_urban rail rail_electric ship" oneway="0"/>
    <type id="highway.secondary" priority="7" numLanes="2" speed="27.78" disallow="tram rail_urban rail rail_electric ship" oneway="0"/>
    <type id="highway.secondary_link" priority="6" numLanes="1" speed="22.22" disallow="tram rail_urban rail rail_electric ship" oneway="0"/>
    <type id="highway.service" priority="2" numLanes="1" speed="5.56" allow="delivery bicycle pedestrian" oneway="0"/>
    <type id="highway.services" priority="1" numLanes="1" speed="8.33" disallow="tram rail_urban rail rail_electric ship" oneway="0"/>
    <type id="highway.stairs" priority="1" numLanes="1" speed="1.39" allow="pedestrian" oneway="1" width="2.00"/>
    <type id="highway.step" priority="1" numLanes="1" speed="1.39" allow="pedestrian" oneway="1" width="2.00"/>
    <type id="highway.steps" priority="1" numLanes="1" speed="1.39" allow="pedestrian" oneway="1" width="2.00"/>
    <type id="highway.tertiary" priority="6" numLanes="1" speed="22.22" disallow="tram rail_urban rail rail_electric ship" oneway="0"/>
    <type id="highway.tertiary_link" priority="5" numLanes="1" speed="22.22" disallow="tram rail_urban rail rail_electric ship" oneway="0"/>
    <type id="highway.track" priority="1" numLanes="1" speed="5.56" disallow="tram rail_urban rail rail_electric ship" oneway="0"/>
    <type id="highway.trunk" priority="11" numLanes="2" speed="27.78" disallow="tram rail_urban rail rail_electric bicycle pedestrian ship" oneway="0"/>
    <type id="highway.trunk_link" priority="10" numLanes="1" speed="22.22" disallow="tram rail_urban rail rail_electric bicycle pedestrian ship" oneway="0"/>
    <type id="highway.unclassified" priority="5" numLanes="1" speed="13.89" disallow="tram rail_urban rail rail_electric ship" oneway="0"/>
    <type id="highway.unsurfaced" priority="1" numLanes="1" speed="8.33" disallow="tram rail_urban rail rail_electric ship" oneway="0"/>
    <type id="railway.light_rail" priority="15" numLanes="1" speed="27.78" allow="rail_urban" oneway="1"/>
    <type id="railway.preserved" priority="15" numLanes="1" speed="27.78" allow="rail" oneway="1"/>
    <type id="railway.rail" priority="15" numLanes="1" speed="83.33" allow="rail rail_electric" oneway="1"/>
    <type id="railway.subway" priority="15" numLanes="1" speed="27.78" allow="rail_urban" oneway="1"/>
    <type id="railway.tram" priority="15" numLanes="1" speed="13.89" allow="tram" oneway="1"/>

    <edge id=":1120133865_0" function="internal">
        <lane id=":1120133865_0_0" index="0" allow="rail rail_electric" speed="83.33" length="0.10" shape="2737.63,1417.09 2737.63,1417.09"/>
    </edge>
    <edge id=":1120133929_0" function="internal">
        <lane id=":1120133929_0_0" index="0" disallow="tram rail_urban rail rail_electric ship" speed="27.78" length="4.09" shape="2837.17,1307.90 2833.18,1308.48"/>
        <lane id=":1120133929_0_1" index="1" disallow="tram rail_urban rail rail_electric ship" speed="27.78" length="4.09" shape="2834.29,1306.29 2830.22,1307.02"/>
    </edge>
    <edge id=":1120133929_2" function="internal">
        <lane id=":1120133929_2_0" index="0" disallow="tram rail_urban rail rail_electric ship" speed="27.78" length="0.20" shape="2834.29,1306.29 2834.11,1306.38"/>
    </edge>
    <edge id=":1120133929_6" function="internal">
        <lane id=":1120133929_6_0" index="0" speed="27.78" length="4.62" shape="2834.11,1306.38 2832.97,1306.96 2832.05,1306.92 2831.53,1306.15 2831.42,1304.67"/>
    </edge>
    <edge id=":1120133929_3" function="internal">
        <lane id=":1120133929_3_0" index="0" disallow="tram rail_urban rail rail_electric ship" speed="27.78" length="3.02" shape="2830.47,1307.15 2833.18,1308.48"/>
    </edge>
    <edge id=":1120133929_4" function="internal">
        <lane id=":1120133929_4_0" index="0" disallow="tram rail_urban rail rail_electric ship" speed="27.78" length="4.49" shape="2830.47,1307.15 2828.54,1303.05"/>
        <lane id=":1120133929_4_1" index="1" disallow="tram rail_urban rail rail_electric ship" speed="27.78" length="4.49" shape="2833.47,1308.62 2831.42,1304.67"/>
    </edge>
    <edge id=":1120134014_0" function="internal">
        <lane id=":1120134014_0_0" index="0" disallow="tram rail_urban rail rail_electric bicycle pedestrian ship" speed="25.00" length="4.80" shape="2794.95,1401.38 2790.43,1399.76"/>
    </edge>
    <edge id=":1120134014_1" function="internal">
        <lane id=":1120134014_1_0" index="0" disallow="tram rail_urban rail rail_electric ship" speed="27.78" length="3.16" shape="2794.95,1401.38 2794.21,1404.27"/>
        <lane id=":1120134014_1_1" index="1" disallow="tram rail_urban rail rail_electric ship" speed="27.78" length="3.16" shape="2791.83,1400.26 2791.01,1403.49"/>
    </edge>
    <edge id=":1120134014_3" function="internal">
        <lane id=":1120134014_3_0" index="0" disallow="tram rail_urban rail rail_electric ship" speed="27.78" length="3.14" shape="2791.83,1400.26 2790.64,1401.15 2789.72,1401.26 2789.22,1400.74"/>
    </edge>
    <edge id=":1120134014_8" function="internal">
        <lane id=":1120134014_8_0" index="0" speed="27.78" length="1.69" shape="2789.22,1400.74 2789.08,1400.59 2788.72,1399.14"/>
    </edge>
    <edge id=":1120134014_4" function="internal">
        <lane id=":1120134014_4_0" index="0" disallow="tram rail_urban rail rail_electric ship" speed="27.78" length="4.50" shape="2784.59,1401.92 2785.60,1398.02"/>
        <lane id=":1120134014_4_1" index="1" disallow="tram rail_urban rail rail_electric ship" speed="27.78" length="4.50" shape="2784.59,1401.92 2788.72,1399.14"/>
    </edge>
    <edge id=":1120134014_6" function="internal">
        <lane id=":1120134014_6_0" index="0" disallow="tram rail_urban rail rail_electric bicycle pedestrian ship" speed="25.00" length="4.07" shape="2787.80,1402.71 2788.31,1401.70 2789.04,1401.21 2789.81,1400.73 2790.43,1399.76"/>
    </edge>
    <edge id=":1120134014_7" function="internal">
        <lane id=":1120134014_7_0" index="0" disallow="tram rail_urban rail rail_electric ship" speed="27.78" length="2.41" shape="2787.80,1402.71 2788.89,1401.70 2789.79,1401.49"/>
    </edge>
    <edge id=":1120134014_9" function="internal">
        <lane id=":1120134014_9_0" index="0" speed="27.78" length="2.41" shape="2789.79,1401.49 2790.50,1402.09 2791.01,1403.49"/>
    </edge>
    <edge id=":1120134017_0" function="internal">
        <lane id=":1120134017_0_0" index="0" disallow="tram rail_urban rail rail_electric ship" speed="27.78" length="2.61" shape="2805.86,1364.94 2803.81,1363.32"/>
    </edge>
    <edge id=":1120134017_1" function="internal">
        <lane id=":1120134017_1_0" index="0" disallow="tram rail_urban rail rail_electric ship" speed="27.78" length="5.39" shape="2805.86,1364.94 2807.24,1369.87"/>
        <lane id=":1120134017_1_1" index="1" disallow="tram rail_urban rail rail_electric ship" speed="27.78" length="5.39" shape="2803.17,1362.81 2804.31,1368.35"/>
    </edge>
    <edge id=":1120134017_3" function="internal">
        <lane id=":1120134017_3_0" index="0" disallow="tram rail_urban rail rail_electric ship" speed="27.78" length="5.81" shape="2798.45,1365.31 2799.60,1364.25 2800.97,1364.21 2802.43,1364.23 2803.81,1363.32"/>
        <lane id=":1120134017_3_1" index="1" disallow="tram rail_urban rail rail_electric ship" speed="27.78" length="5.81" shape="2801.38,1366.83 2802.45,1365.91 2803.75,1366.01 2805.11,1366.14 2806.40,1365.37"/>
    </edge>
    <edge id=":1120134017_5" function="internal">
        <lane id=":1120134017_5_0" index="0" disallow="tram rail_urban rail rail_electric ship" speed="27.78" length="1.01" shape="2801.38,1366.83 2802.27,1366.34"/>
    </edge>
    <edge id=":1120134017_6" function="internal">
        <lane id=":1120134017_6_0" index="0" speed="27.78" length="3.81" shape="2802.27,1366.34 2802.68,1366.11 2803.61,1366.12 2804.15,1366.87 2804.31,1368.35"/>
    </edge>
    <edge id=":1120134058_0" function="internal">
        <lane id=":1120134058_0_0" index="0" disallow="tram rail_urban rail rail_electric ship" speed="27.78" length="10.44" shape="2822.64,1353.42 2821.23,1344.58"/>
        <lane id=":1120134058_0_1" index="1" disallow="tram rail_urban rail rail_electric ship" speed="27.78" length="10.44" shape="2826.17,1354.85 2824.17,1343.09"/>
    </edge>
    <edge id=":1120134058_2" function="internal">
        <lane id=":1120134058_2_0" index="0" disallow="tram rail_urban rail rail_electric ship" speed="25.00" length="10.88" shape="2827.30,1353.42 2826.02,1350.71 2825.64,1348.48 2825.31,1346.14 2824.17,1343.09"/>
    </edge>
    <edge id=":1120134076_0" function="internal">
        <lane id=":1120134076_0_0" index="0" disallow="tram rail_urban rail rail_electric bicycle pedestrian ship" speed="22.22" length="6.60" shape="2835.29,1502.12 2841.08,1498.94"/>
    </edge>
    <edge id=":1120134189_0" function="internal">
        <lane id=":1120134189_0_0" index="0" disallow="tram rail_urban rail rail_electric ship" speed="27.78" length="1.12" shape="2781.57,1475.65 2781.51,1476.04 2781.46,1476.30 2781.40,1476.56 2781.29,1476.93"/>
        <lane id=":1120134189_0_1" index="1" disallow="tram rail_urban rail rail_electric ship" speed="27.78" length="1.12" shape="2778.31,1475.14 2778.27,1475.41 2778.23,1475.59 2778.19,1475.78 2778.12,1476.04"/>
    </edge>
    <edge id=":1120134189_2" function="internal">
        <lane id=":1120134189_2_0" index="0" disallow="tram rail_urban rail rail_electric ship" speed="27.78" length="2.41" shape="2778.31,1475.14 2777.30,1476.23 2776.42,1476.51"/>
    </edge>
    <edge id=":1120134189_6" function="internal">
        <lane id=":1120134189_6_0" index="0" speed="27.78" length="2.41" shape="2776.42,1476.51 2775.67,1475.97 2775.05,1474.62"/>
    </edge>
    <edge id=":1120134189_3" function="internal">
        <lane id=":1120134189_3_0" index="0" disallow="tram rail_urban rail rail_electric ship" speed="27.78" length="0.37" shape="2771.76,1474.27 2771.77,1474.22 2771.78,1474.19 2771.79,1474.15 2771.80,1474.10"/>
        <lane id=":1120134189_3_1" index="1" disallow="tram rail_urban rail rail_electric ship" speed="27.78" length="0.37" shape="2774.94,1475.16 2774.98,1475.00 2775.01,1474.89 2775.03,1474.78 2775.05,1474.62"/>
    </edge>
    <edge id=":1120134189_5" function="internal">
        <lane id=":1120134189_5_0" index="0" disallow="tram rail_urban rail rail_electric ship" speed="27.78" length="2.41" shape="2774.94,1475.16 2776.06,1474.19 2776.97,1474.01"/>
    </edge>
    <edge id=":1120134189_7" function="internal">
        <lane id=":1120134189_7_0" index="0" speed="27.78" length="2.41" shape="2776.97,1474.01 2777.65,1474.63 2778.12,1476.04"/>
    </edge>
    <edge id=":1120134298_0" function="internal">
        <lane id=":1120134298_0_0" index="0" disallow="tram rail_urban rail rail_electric ship" speed="27.78" length="4.19" shape="2818.29,1352.68 2819.26,1352.15 2819.87,1351.68 2820.34,1351.06 2820.90,1350.11"/>
        <lane id=":1120134298_0_1" index="1" disallow="tram rail_urban rail rail_electric ship" speed="27.78" length="4.19" shape="2819.82,1355.60 2821.04,1354.99 2821.87,1354.50 2822.52,1353.82 2823.24,1352.68"/>
    </edge>
    <edge id=":1120134298_2" function="internal">
        <lane id=":1120134298_2_0" index="0" disallow="tram rail_urban rail rail_electric bicycle pedestrian ship" speed="25.00" length="4.01" shape="2819.82,1355.60 2820.49,1355.47 2821.30,1355.68 2822.23,1356.25 2823.29,1357.16"/>
    </edge>
    <edge id=":1120159407_0" function="internal">
        <lane id=":1120159407_0_0" index="0" disallow="tram rail_urban rail rail_electric ship" speed="13.89" length="4.82" shape="3006.37,1459.77 3005.64,1461.07 3004.85,1461.54 3004.00,1461.19 3003.08,1460.02"/>
    </edge>
    <edge id=":1120159437_0" function="internal">
        <lane id=":1120159437_0_0" index="0" disallow="tram rail_urban rail rail_electric ship" speed="13.89" length="7.44" shape="3000.43,1437.69 2999.86,1436.54 2998.68,1435.50 2996.88,1434.55 2994.47,1433.70"/>
    </edge>
    <edge id=":1120159437_1" function="internal">
        <lane id=":1120159437_1_0" index="0" disallow="tram rail_urban rail rail_electric ship" speed="13.89" length="10.17" shape="3000.43,1437.69 2999.73,1434.77 2999.25,1432.73 2998.97,1430.67 2998.89,1427.68"/>
    </edge>
    <edge id=":1120159437_2" function="internal">
        <lane id=":1120159437_2_0" index="0" disallow="tram rail_urban rail rail_electric ship" speed="13.89" length="2.41" shape="3000.43,1437.69 3000.97,1436.30 3001.68,1435.72"/>
    </edge>
    <edge id=":1120159437_9" function="internal">
        <lane id=":1120159437_9_0" index="0" speed="13.89" length="2.41" shape="3001.68,1435.72 3002.58,1435.94 3003.65,1436.97"/>
    </edge>
    <edge id=":1120159437_3" function="internal">
        <lane id=":1120159437_3_0" index="0" disallow="tram rail_urban rail rail_electric ship" speed="13.89" length="9.95" shape="3002.19,1427.17 3002.26,1430.11 3002.51,1432.11 3002.97,1434.09 3003.65,1436.97"/>
    </edge>
    <edge id=":1120159437_4" function="internal">
        <lane id=":1120159437_4_0" index="0" disallow="tram rail_urban rail rail_electric ship" speed="13.89" length="5.43" shape="3002.19,1427.17 3001.70,1430.88 3000.81,1432.31"/>
    </edge>
    <edge id=":1120159437_5" function="internal">
        <lane id=":1120159437_5_0" index="0" disallow="tram rail_urban rail rail_electric ship" speed="13.89" length="2.72" shape="3002.19,1427.17 3001.56,1428.53 3000.79,1429.07 3000.53,1428.99"/>
    </edge>
    <edge id=":1120159437_10" function="internal">
        <lane id=":1120159437_10_0" index="0" speed="13.89" length="7.04" shape="3000.81,1432.31 3000.25,1433.20 2997.84,1434.14 2994.47,1433.70"/>
    </edge>
    <edge id=":1120159437_11" function="internal">
        <lane id=":1120159437_11_0" index="0" speed="13.89" length="2.16" shape="3000.53,1428.99 2999.91,1428.79 2998.89,1427.68"/>
    </edge>
    <edge id=":1120159437_6" function="internal">
        <lane id=":1120159437_6_0" index="0" disallow="tram rail_urban rail rail_electric ship" speed="13.89" length="5.56" shape="2995.41,1430.53 2996.93,1430.74 2998.02,1430.33 2998.67,1429.31 2998.89,1427.68"/>
    </edge>
    <edge id=":1120159437_7" function="internal">
        <lane id=":1120159437_7_0" index="0" disallow="tram rail_urban rail rail_electric ship" speed="13.89" length="10.93" shape="2995.41,1430.53 2998.66,1431.74 3001.12,1433.22 3002.78,1434.96 3003.65,1436.97"/>
    </edge>
    <edge id=":1120159437_8" function="internal">
        <lane id=":1120159437_8_0" index="0" disallow="tram rail_urban rail rail_electric ship" speed="13.89" length="4.82" shape="2995.41,1430.53 2996.36,1431.68 2996.52,1432.58 2995.89,1433.26 2994.47,1433.70"/>
    </edge>
    <edge id=":1120159482_0" function="internal">
        <lane id=":1120159482_0_0" index="0" allow="delivery bicycle pedestrian" speed="9.73" length="5.12" shape="2980.29,1373.14 2979.01,1372.77 2977.87,1372.91 2976.86,1373.55 2976.00,1374.70"/>
    </edge>
    <edge id=":1120159482_1" function="internal">
        <lane id=":1120159482_1_0" index="0" disallow="tram rail_urban rail rail_electric ship" speed="13.89" length="9.38" shape="2980.29,1373.14 2971.95,1368.86"/>
    </edge>
    <edge id=":1120159482_2" function="internal">
        <lane id=":1120159482_2_0" index="0" disallow="tram rail_urban rail rail_electric ship" speed="13.89" length="2.54" shape="2980.29,1373.14 2979.52,1371.88 2979.49,1370.95 2979.59,1370.87"/>
    </edge>
    <edge id=":1120159482_9" function="internal">
        <lane id=":1120159482_9_0" index="0" speed="13.89" length="2.28" shape="2979.59,1370.87 2980.21,1370.38 2981.68,1370.15"/>
    </edge>
    <edge id=":1120159482_3" function="internal">
        <lane id=":1120159482_3_0" index="0" disallow="tram rail_urban rail rail_electric ship" speed="13.89" length="9.12" shape="2973.57,1365.98 2981.68,1370.15"/>
    </edge>
    <edge id=":1120159482_4" function="internal">
        <lane id=":1120159482_4_0" index="0" allow="delivery bicycle pedestrian" speed="9.73" length="5.01" shape="2973.57,1365.98 2975.82,1367.71 2976.89,1369.60"/>
    </edge>
    <edge id=":1120159482_5" function="internal">
        <lane id=":1120159482_5_0" index="0" disallow="tram rail_urban rail rail_electric ship" speed="13.89" length="2.41" shape="2973.57,1365.98 2974.24,1367.31 2974.20,1368.23"/>
    </edge>
    <edge id=":1120159482_10" function="internal">
        <lane id=":1120159482_10_0" index="0" speed="9.73" length="5.32" shape="2976.89,1369.60 2976.97,1369.73 2977.03,1372.07 2976.00,1374.70"/>
    </edge>
    <edge id=":1120159482_11" function="internal">
        <lane id=":1120159482_11_0" index="0" speed="13.89" length="2.41" shape="2974.20,1368.23 2973.43,1368.74 2971.95,1368.86"/>
    </edge>
    <edge id=":1120159482_6" function="internal">
        <lane id=":1120159482_6_0" index="0" disallow="tram rail_urban rail rail_electric ship" speed="9.73" length="5.00" shape="2973.13,1373.08 2973.63,1371.80 2973.60,1370.67 2973.04,1369.69 2971.95,1368.86"/>
    </edge>
    <edge id=":1120159482_7" function="internal">
        <lane id=":1120159482_7_0" index="0" disallow="tram rail_urban rail rail_electric ship" speed="9.73" length="10.14" shape="2973.13,1373.08 2974.82,1370.85 2976.81,1369.62 2979.10,1369.38 2981.68,1370.15"/>
    </edge>
    <edge id=":1120159482_8" function="internal">
        <lane id=":1120159482_8_0" index="0" allow="delivery bicycle pedestrian" speed="5.56" length="4.82" shape="2973.13,1373.08 2974.45,1372.41 2975.38,1372.46 2975.89,1373.22 2976.00,1374.70"/>
    </edge>
    <edge id=":1192917624_0" function="internal">
        <lane id=":1192917624_0_0" index="0" disallow="tram rail_urban rail rail_electric ship" speed="8.94" length="5.05" shape="2347.72,1666.43 2346.59,1671.35"/>
    </edge>
    <edge id=":1192917624_1" function="internal">
        <lane id=":1192917624_1_0" index="0" disallow="tram rail_urban rail rail_electric ship" speed="8.94" length="2.41" shape="2347.72,1666.43 2346.64,1667.45 2345.75,1667.68"/>
    </edge>
    <edge id=":1192917624_4" function="internal">
        <lane id=":1192917624_4_0" index="0" speed="8.94" length="2.41" shape="2345.75,1667.68 2345.03,1667.09 2344.50,1665.71"/>
    </edge>
    <edge id=":1192917624_2" function="internal">
        <lane id=":1192917624_2_0" index="0" disallow="tram rail_urban rail rail_electric ship" speed="8.94" length="5.02" shape="2343.38,1670.60 2344.50,1665.71"/>
    </edge>
    <edge id=":1192917624_3" function="internal">
        <lane id=":1192917624_3_0" index="0" disallow="tram rail_urban rail rail_electric ship" speed="8.94" length="2.41" shape="2343.38,1670.60 2344.47,1669.58 2345.36,1669.37"/>
    </edge>
    <edge id=":1192917624_5" function="internal">
        <lane id=":1192917624_5_0" index="0" speed="8.94" length="2.41" shape="2345.36,1669.37 2346.07,1669.96 2346.59,1671.35"/>
    </edge>
    <edge id=":1192917654_0" function="internal">
        <lane id=":1192917654_0_0" index="0" disallow="tram rail_urban rail rail_electric ship" speed="8.94" length="5.50" shape="2274.63,1498.56 2273.29,1497.64 2272.44,1496.92 2271.68,1496.08 2270.64,1494.82"/>
    </edge>
    <edge id=":1192917654_1" function="internal">
        <lane id=":1192917654_1_0" index="0" disallow="tram rail_urban rail rail_electric ship" speed="8.94" length="2.53" shape="2274.63,1498.56 2274.04,1497.19 2274.15,1496.28 2274.25,1496.22"/>
    </edge>
    <edge id=":1192917654_4" function="internal">
        <lane id=":1192917654_4_0" index="0" speed="8.94" length="2.29" shape="2274.25,1496.22 2274.94,1495.81 2276.43,1495.80"/>
    </edge>
    <edge id=":1192917654_2" function="internal">
        <lane id=":1192917654_2_0" index="0" disallow="tram rail_urban rail rail_electric ship" speed="8.94" length="4.54" shape="2273.16,1492.70 2274.02,1493.74 2274.63,1494.43 2275.33,1495.04 2276.43,1495.80"/>
    </edge>
    <edge id=":1192917654_3" function="internal">
        <lane id=":1192917654_3_0" index="0" disallow="tram rail_urban rail rail_electric ship" speed="8.94" length="2.41" shape="2273.16,1492.70 2273.33,1494.17 2272.96,1495.02"/>
    </edge>
    <edge id=":1192917654_5" function="internal">
        <lane id=":1192917654_5_0" index="0" speed="8.94" length="2.41" shape="2272.96,1495.02 2272.07,1495.24 2270.64,1494.82"/>
    </edge>
    <edge id=":1192925750_0" function="internal">
        <lane id=":1192925750_0_0" index="0" disallow="tram rail_urban rail rail_electric ship" speed="13.89" length="6.17" shape="2488.35,1856.75 2482.38,1855.20"/>
    </edge>
    <edge id=":1192925750_1" function="internal">
        <lane id=":1192925750_1_0" index="0" allow="delivery bicycle pedestrian" speed="11.42" length="3.00" shape="2488.35,1856.75 2487.11,1856.00 2486.47,1854.59"/>
    </edge>
    <edge id=":1192925750_2" function="internal">
        <lane id=":1192925750_2_0" index="0" disallow="tram rail_urban rail rail_electric ship" speed="13.89" length="2.41" shape="2488.35,1856.75 2487.38,1855.63 2487.20,1854.72"/>
    </edge>
    <edge id=":1192925750_9" function="internal">
        <lane id=":1192925750_9_0" index="0" speed="11.42" length="4.84" shape="2486.47,1854.59 2486.43,1852.53 2486.99,1849.81"/>
    </edge>
    <edge id=":1192925750_10" function="internal">
        <lane id=":1192925750_10_0" index="0" speed="13.89" length="2.41" shape="2487.20,1854.72 2487.82,1854.04 2489.23,1853.57"/>
    </edge>
    <edge id=":1192925750_3" function="internal">
        <lane id=":1192925750_3_0" index="0" disallow="tram rail_urban rail rail_electric ship" speed="11.42" length="3.26" shape="2490.16,1850.70 2489.77,1851.52 2489.24,1852.40 2488.93,1853.15 2489.23,1853.57"/>
    </edge>
    <edge id=":1192925750_4" function="internal">
        <lane id=":1192925750_4_0" index="0" disallow="tram rail_urban rail rail_electric ship" speed="11.42" length="10.20" shape="2490.16,1850.70 2489.04,1853.25 2487.37,1854.85 2485.15,1855.50 2482.38,1855.20"/>
    </edge>
    <edge id=":1192925750_5" function="internal">
        <lane id=":1192925750_5_0" index="0" allow="delivery bicycle pedestrian" speed="8.94" length="4.82" shape="2490.16,1850.70 2489.03,1851.67 2488.13,1851.84 2487.45,1851.22 2486.99,1849.81"/>
    </edge>
    <edge id=":1192925750_6" function="internal">
        <lane id=":1192925750_6_0" index="0" allow="delivery bicycle pedestrian" speed="11.42" length="4.97" shape="2483.19,1852.00 2484.54,1852.15 2485.62,1851.83 2486.44,1851.05 2486.99,1849.81"/>
    </edge>
    <edge id=":1192925750_7" function="internal">
        <lane id=":1192925750_7_0" index="0" disallow="tram rail_urban rail rail_electric ship" speed="13.89" length="6.24" shape="2483.19,1852.00 2489.23,1853.57"/>
    </edge>
    <edge id=":1192925750_8" function="internal">
        <lane id=":1192925750_8_0" index="0" disallow="tram rail_urban rail rail_electric ship" speed="13.89" length="2.41" shape="2483.19,1852.00 2484.19,1853.11 2484.39,1854.01"/>
    </edge>
    <edge id=":1192925750_11" function="internal">
        <lane id=":1192925750_11_0" index="0" speed="13.89" length="2.41" shape="2484.39,1854.01 2483.78,1854.71 2482.38,1855.20"/>
    </edge>
    <edge id=":1193847054_0" function="internal">
        <lane id=":1193847054_0_0" index="0" disallow="tram rail_urban rail rail_electric ship" speed="5.56" length="0.34" shape="1548.18,1406.89 1548.09,1406.93 1548.03,1406.96 1547.97,1407.00 1547.89,1407.06"/>
    </edge>
    <edge id=":1193847054_1" function="internal">
        <lane id=":1193847054_1_0" index="0" disallow="tram rail_urban rail rail_electric ship" speed="5.56" length="2.41" shape="1548.18,1406.89 1546.72,1406.62 1546.01,1406.03"/>
    </edge>
    <edge id=":1193847054_4" function="internal">
        <lane id=":1193847054_4_0" index="0" speed="5.56" length="2.41" shape="1546.01,1406.03 1546.06,1405.11 1546.87,1403.86"/>
    </edge>
    <edge id=":1193847054_2" function="internal">
        <lane id=":1193847054_2_0" index="0" disallow="tram rail_urban rail rail_electric ship" speed="5.56" length="1.04" shape="1545.97,1404.37 1546.22,1404.19 1546.40,1404.08 1546.59,1403.98 1546.87,1403.86"/>
    </edge>
    <edge id=":1193847054_3" function="internal">
        <lane id=":1193847054_3_0" index="0" disallow="tram rail_urban rail rail_electric ship" speed="5.56" length="2.41" shape="1545.97,1404.37 1547.46,1404.32 1548.27,1404.75"/>
    </edge>
    <edge id=":1193847054_5" function="internal">
        <lane id=":1193847054_5_0" index="0" speed="5.56" length="2.41" shape="1548.27,1404.75 1548.41,1405.67 1547.89,1407.06"/>
    </edge>
    <edge id=":1193847074_0" function="internal">
        <lane id=":1193847074_0_0" index="0" allow="delivery bicycle pedestrian" speed="8.94" length="4.82" shape="2245.45,2233.11 2246.53,2232.09 2247.43,2231.87 2248.14,2232.46 2248.66,2233.86"/>
    </edge>
    <edge id=":1193847128_0" function="internal">
        <lane id=":1193847128_0_0" index="0" allow="delivery bicycle pedestrian" speed="8.94" length="4.98" shape="2223.44,2285.21 2220.40,2281.27"/>
    </edge>
    <edge id=":1193847128_1" function="internal">
        <lane id=":1193847128_1_0" index="0" allow="delivery bicycle pedestrian" speed="8.94" length="4.82" shape="2223.44,2285.21 2223.29,2283.73 2223.66,2282.89 2224.56,2282.68 2225.98,2283.11"/>
    </edge>
    <edge id=":1193847128_2" function="internal">
        <lane id=":1193847128_2_0" index="0" allow="delivery bicycle pedestrian" speed="8.94" length="4.81" shape="2223.05,2279.30 2225.98,2283.11"/>
    </edge>
    <edge id=":1193847128_3" function="internal">
        <lane id=":1193847128_3_0" index="0" allow="delivery bicycle pedestrian" speed="8.94" length="4.82" shape="2223.05,2279.30 2223.12,2280.78 2222.71,2281.61 2221.80,2281.77 2220.40,2281.27"/>
    </edge>
    <edge id=":1268239961_0" function="internal">
        <lane id=":1268239961_0_0" index="0" disallow="tram rail_urban rail rail_electric ship" speed="8.94" length="4.82" shape="2088.30,1967.97 2087.30,1966.87 2087.10,1965.97 2087.69,1965.27 2089.09,1964.77"/>
    </edge>
    <edge id=":1268239999_0" function="internal">
        <lane id=":1268239999_0_0" index="0" disallow="tram rail_urban rail rail_electric ship" speed="8.94" length="9.59" shape="2222.67,1992.12 2220.43,2001.45"/>
    </edge>
    <edge id=":1268239999_1" function="internal">
        <lane id=":1268239999_1_0" index="0" disallow="tram rail_urban rail rail_electric ship" speed="8.94" length="10.37" shape="2222.67,1992.12 2221.65,1994.75 2220.02,1996.42 2217.78,1997.15 2214.93,1996.91"/>
    </edge>
    <edge id=":1268239999_2" function="internal">
        <lane id=":1268239999_2_0" index="0" disallow="tram rail_urban rail rail_electric ship" speed="8.94" length="4.82" shape="2222.67,1992.12 2221.59,1993.14 2220.69,1993.36 2219.98,1992.77 2219.45,1991.38"/>
    </edge>
    <edge id=":1268239999_3" function="internal">
        <lane id=":1268239999_3_0" index="0" disallow="tram rail_urban rail rail_electric ship" speed="8.94" length="5.07" shape="2215.65,1993.69 2217.05,1993.81 2218.16,1993.46 2218.96,1992.65 2219.45,1991.38"/>
    </edge>
    <edge id=":1268239999_4" function="internal">