<?xml version="1.0" encoding="UTF-8"?>

<!-- generated on Wed Dec 19 20:58:57 2018 by SUMO duarouter Version 0.30.0
<?xml version="1.0" encoding="UTF-8"?>

<configuration xmlns:xsi="http://www.w3.org/2001/XMLSchema-instance" xsi:noNamespaceSchemaLocation="duarouterConfiguration.xsd">

    <input>
        <net-file value="sussex.net.xml"/>
        <trip-files value="trips.trips.xml"/>
    </input>

    <output>
        <output-file value="sussex.rou.xml"/>
    </output>

    <processing>
        <ignore-errors value="true"/>
    </processing>

    <time>
        <begin value="0.0"/>
        <end value="100.0"/>
    </time>

    <report>
        <no-warnings value="true"/>
        <no-step-log value="true"/>
    </report>

</configuration>
-->

<routes xmlns:xsi="http://www.w3.org/2001/XMLSchema-instance" xsi:noNamespaceSchemaLocation="routes_file.xsd">
    <vehicle id="0" depart="0.00">
        <route edges="579247069 19869166 19869203#5 19869203#6 19869203#0 19869203#1 579246842 -16349602#1 -16349602#0 -248000804 -579246841 16349605 16312176#5 16312176#0 386547254#0 386547254#1 -554531198#1 -554531198#0 -625801065 625801066#0 625801066#1 -17057976 -36768792#10 -36768792#9 -36768792#8 -36768792#7 -36768792#6 -36768792#5 -36768792#4 -36768792#3 -36768792#2 -36768792#1 -36768792#0 -17048515#8 -17048515#7 -17048515#6 -17048515#5 -17048515#4 -17048515#3 -17048515#2 -17048515#1 -17048515#0 17048314#0 17048314#1 17048314#2 -17057516#5 -17057516#4 -17057516#3 -17057516#2 -17057516#1 -17057516#0 -114854338#1 -112238838#0 -112238841 112238841"/>
    </vehicle>
    <vehicle id="2" depart="2.00">
        <route edges="4245711#1 224630614 224630617 579246839#0 579246839#1 181571583#0 8205850 16312176#0 386547254#0 386547254#1 -554531198#1 -554531198#0 -625801065 625801066#0 625801066#1 -17057976 -36768792#10 -36768792#9 -36768792#8 -36768792#7 -36768792#6 -36768792#5 -36768792#4 -36768792#3 -36768792#2 -36768792#1 -36768792#0 -17048515#8 -17048515#7 -17048515#6 -17048515#5 -17048515#4 -17048515#3 -17048515#2 -17048515#1 -17048515#0 17048314#0 17048314#1 17048314#2 -17057516#5 -17057516#4 -17057516#3 -17057516#2 -17057516#1 -17057516#0 -114854338#1 112238838#1 224630621#0 224630621#1 -224630621#1"/>
    </vehicle>
    <vehicle id="6" depart="6.00">
        <route edges="-339185700#6 -339185700#5 -339185700#4 -339185700#3 -339185700#2 -161571129"/>
    </vehicle>
    <vehicle id="15" depart="15.00">
        <route edges="32501210#0 32501210#1 32501266#0 32501266#1 240132475 -17058083#1 -17058083#0 -625801065 625801066#0 625801066#1 -17057976 -36768792#10 -36768792#9 -36768792#8 -36768792#7 -36768792#6 -36768792#5 -36768792#4 -36768792#3 -36768792#2 -36768792#1 -36768792#0 -17048515#8 -17048515#7 -17048515#6 -17048515#5 -17048515#4 -17048515#3 -17048515#2 -17048515#1 -17048515#0 17048314#0 17048314#1 17048314#2 -17057516#5 -17057516#4 -17057516#3 -17057516#2 -17057516#1 -17057516#0 -114854338#1 112238838#1 224630621#0 224630621#1 224630621#2 224630621#3 224630621#4 224630621#5 19200229#5 19200229#6 19200229#7 19200229#8 19200229#9 5021739 5021741#0 5021741#1 -150117914#2 -150117914#1 150117914#1"/>
    </vehicle>
    <vehicle id="18" depart="18.00">
        <route edges="181571583#0 8205850 16312176#0 16312176#1 16312176#2 16312176#3 386547256 579246841 248000804 16349602#0 16349602#1 386547249 19869203#3 96725216 16349078 181571587#1 181571587#2 181571579#0 181571579#1 224630618 224630620 579246843"/>
    </vehicle>
    <vehicle id="21" depart="21.00">
        <route edges="-157736728 -224630621#1 -224630621#0 -112238838#1 114854338#1 17057516#0"/>
    </vehicle>
    <vehicle id="22" depart="22.00">
        <route edges="-181571590#1 181571590#1 -165849794 19869440 579247070 19869203#1 579246842 -16349602#1 -16349602#0 -248000804 -579246841 16349605 16312176#5 16312176#0 386547254#0 386547254#1 -554531198#1 -554531198#0 -625801065 625801066#0 625801066#1 -17057976 -36768792#10 -36768792#9 -36768792#8 -36768792#7 -36768792#6 -36768792#5 -36768792#4"/>
    </vehicle>
    <vehicle id="27" depart="27.00">
        <route edges="-114928149#1 -114928149#0 -632007011 114928152#0 114928152#1 -17058083#2 -17058083#1 -17058083#0 -625801065 625801066#0 625801066#1 -17057976 -36768792#10 -36768792#9 -36768792#8 -36768792#7 -36768792#6 -36768792#5 -36768792#4 -36768792#3 -36768792#2 169092569#0 169092569#1"/>
    </vehicle>
    <vehicle id="31" depart="31.00">
        <route edges="579246841 -579246841 16349605 16312176#5 16312176#0 386547254#0 386547254#1 -554531198#1 -554531198#0 -625801065 625801066#0 625801066#1 -17057976 -36768792#10 -36768792#9 -36768792#8 -36768792#7 -36768792#6 -36768792#5 -36768792#4 -36768792#3 -36768792#2 -36768792#1 -36768792#0 -17048515#8 -17048515#7 -17048515#6 -17048515#5 -17048515#4 -17048515#3 -17048515#2 -17048515#1 -17048515#0 17048314#0 17048314#1 17048314#2 -17057516#5 -17057516#4 -17057516#3 -17057516#2 -17057516#1 -17057516#0 -114854338#1 112238838#1 224630621#0 224630621#1 157736728 120171776#0 120171776#1 120171776#2 120171776#3 -130443568#3 -130443568#2 -130443568#1 130443568#1"/>
    </vehicle>
    <vehicle id="33" depart="33.00">
        <route edges="-5021741#0 19200229#0 19200229#1 19200229#2 19200229#3 19200229#4 -224630621#5 -224630621#4 -224630621#3 -224630621#2 -224630621#1 -224630621#0 -112238838#1 114854338#1 17057516#0 17057516#1 17057516#2 17057516#3 17057516#4 17057516#5 -17048314#2 -17048314#1 -17048314#0 17048515#0 17048515#1 17048515#2 17048515#3 17048515#4 17048515#5 17048515#6 17048515#7 17048515#8 36768792#0 36768792#1 36768792#2 36768792#3 36768792#4 36768792#5 36768792#6 36768792#7 36768792#8 36768792#9 36768792#10 17057976 625801064 625801065 554531198#0 554531198#1 579246844#0 579246844#1 16312176#2 16312227#0 16312227#1 181571583#2"/>
    </vehicle>
    <vehicle id="34" depart="34.00">
        <route edges="10071526#6 -10071526#6"/>
    </vehicle>
    <vehicle id="35" depart="35.00">
        <route edges="120171776#1 -120171776#1 -120171776#0 -157736728 -224630621#1 -224630621#0 -112238838#1 114854338#1 17057516#0 17057516#1 17057516#2 17057516#3 17057516#4 17057516#5 -17048314#2 -17048314#1 -17048314#0 17048515#0 17048515#1 17048515#2 17048515#3 17048515#4 17048515#5 17048515#6 17048515#7 17048515#8 36768792#0 36768792#1 36768792#2 36768792#3 36768792#4 36768792#5 36768792#6 36768792#7 36768792#8 36768792#9 36768792#10 17057976 625801064 625801065 17058083#0 17058083#1 17058083#2 -114928152#1 -114928152#0 632007011 114928149#0 114928149#1 -114928149#1"/>
    </vehicle>
    <vehicle id="40" depart="40.00">
        <route edges="-603008698 -41751746 114928152#0 114928152#1 -17058083#2 -17058083#1 -17058083#0 -625801065 625801066#0 625801066#1 -17057976 -17057944 -17057947#2 17057947#2"/>
    </vehicle>
    <vehicle id="43" depart="43.00">
        <route edges="579247069 19869166 19869203#5 386547251 -19869440 19783815#0 19783815#1 19783815#2 19783815#3 -19783815#3"/>
    </vehicle>
    <vehicle id="45" depart="45.00">
        <route edges="4777154 579247069 19869166 19869203#5 19869203#6 19869203#0 19869203#1 579246842 -16349602#1 -16349602#0 -248000804 -579246841 16349605 16312176#5 16312176#0 386547254#0 386547254#1 -554531198#1 -554531198#0 -625801065 625801066#0 625801066#1 -17057976 -36768792#10 -36768792#9 -36768792#8 -36768792#7 -36768792#6 -36768792#5 -36768792#4 -36768792#3 -36768792#2 -36768792#1 -36768792#0 -17048515#8 -17048515#7 -17048515#6 -17048515#5 -17048515#4 -17048515#3 -17048515#2 -17048515#1 -17048515#0 17048314#0 17048314#1 17048314#2 -17057516#5 -17057516#4 -17057516#3 -17057516#2 -17057516#1 -17057516#0 -114854338#1 112238838#1 224630621#0 224630621#1 224630621#2 224630621#3 224630621#4 224630621#5 19200229#5 19200229#6 19200229#7 19200229#8 19200229#9 5021739 5021741#0 5021741#1 -150117914#2 -150117914#1 150117914#1"/>
    </vehicle>
    <vehicle id="50" depart="50.00">
        <route edges="248255973#12 248255973#13 248255973#14 248255973#15 -248254892#10 -248254892#9 -248254892#8 -248254892#7 -248254892#6 -248254892#5 -248254892#4 -248254892#3 -248254892#2 -248254892#1 -248254892#0 -111281055#1 -111281055#0 -480942909#1 -480942909#0 -111281057#1 -111281057#0 -17057776#13 -17057776#12 -17057776#11 -17057776#10 -17057776#9 -17057776#8 -17057776#7 -17057776#6 -17057776#5 -17057776#4 -17057776#3 -17057776#2 -17057776#1 -17057776#0 -480942911 -386651499#5 -386651499#4 -386651499#3 -386651499#2 -386651499#1 -386651499#0 -386651497 -386651503#3 -386651503#2 -386651503#1 -386651503#0 -386651501#1 -386651501#0 -17049217#3 -17049217#2 -17049217#1 -17049217#0 -17048515#8 -17048515#7 -17048515#6 -17048515#5 -17048515#4 -17048515#3 -17048515#2 -17048515#1 -17048515#0 17048314#0 17048314#1 17048314#2 -17057516#5 -17057516#4 -17057516#3 -17057516#2 -17057516#1 -17057516#0 -114854338#1 114854338#1"/>
    </vehicle>
    <vehicle id="52" depart="52.00">
        <route edges="-16349102 19869440 579247070 19869203#1 19869203#2 19869203#3 96725216 16349078 181571587#1 181571587#2 181571579#0 181571579#1 224630618 224630620 579246843"/>
    </vehicle>
    <vehicle id="53" depart="53.00">
        <route edges="10071526#8 10071534#1 10071534#2 -339185700#3 -339185700#2 -339185700#1 10071534#0"/>
    </vehicle>
    <vehicle id="54" depart="54.00">
        <route edges="386651503#0 386651503#1 386651503#2 386651503#3 386651497 386651499#0 386651499#1 386651499#2 386651499#3 386651499#4 386651499#5 -17057759#3 -17057759#2 -17057759#1 -17057759#0 17057947#0 17057947#1 17057947#2 17057944 17057976 625801064 625801065 554531198#0 554531198#1 579246844#0 579246844#1 16312176#2 16312176#3 386547256 579246841 248000804 16349602#0 16349602#1 386547249 19869203#3 96725216 16349078 181571587#1 181571587#2 181571579#0 181571579#1 224630618 224630620 579246843"/>
    </vehicle>
    <vehicle id="60" depart="60.00">
        <route edges="-53211628 -165849794 19869440 579247070 19869203#1 579246842 -16349602#1 -16349602#0 -248000804 -579246841 16349605 16312176#5 16312176#0 386547254#0 386547254#1 -554531198#1 -554531198#0 17058083#0 17058083#1 17058083#2"/>
    </vehicle>
    <vehicle id="63" depart="63.00">
        <route edges="157736728 -157736728 224630621#2 224630621#3 224630621#4 224630621#5 19200229#5 19200229#6 19200229#7"/>
    </vehicle>
    <vehicle id="64" depart="64.00">
        <route edges="-386651499#4 386651499#4 386651499#5 480942911"/>
    </vehicle>
    <vehicle id="65" depart="65.00">
        <route edges="-16349102 19869440 579247070 19869203#1 579246842 -16349602#1 -16349602#0 -248000804 -579246841 16349605 16312176#5 16312176#0 386547254#0 386547254#1 -554531198#1 -554531198#0 -625801065 625801066#0 625801066#1 -17057976 -36768792#10 -36768792#9 -36768792#8 -36768792#7 -36768792#6 -36768792#5 -36768792#4 -36768792#3 -36768792#2 -36768792#1 -36768792#0 -17048515#8 -17048515#7 -17048515#6 -17048515#5 -17048515#4 -17048515#3 -17048515#2 -17048515#1 -17048515#0 17048314#0 17048314#1 17048314#2 -17057516#5 -17057516#4 -17057516#3 -17057516#2 -17057516#1 -17057516#0 -114854338#1 112238838#1 224630621#0 224630621#1 157736728 120171776#0 120171776#1 120171776#2 120171776#3 120171776#4 131221206"/>
    </vehicle>
    <vehicle id="68" depart="68.00">
        <route edges="-120171776#3 -120171776#2 -120171776#1 -120171776#0 -157736728 224630621#2 224630621#3 224630621#4 224630621#5 19200229#5 19200229#6 19200229#7 19200229#8 19200229#9 5021739 5021741#0 5021741#1 -150117914#2 -150117914#1 -150117914#0"/>
    </vehicle>
    <vehicle id="69" depart="69.00">
        <route edges="19200229#1 19200229#2 19200229#3 19200229#4 -224630621#5 -224630621#4 -224630621#3 -224630621#2 -224630621#1 -224630621#0 -112238838#1 114854338#1 17057516#0 17057516#1 17057516#2 17057516#3 17057516#4 17057516#5 -17048314#2 -17048314#1 -17048314#0 17048515#0 17048515#1 17048515#2 17048515#3 17048515#4 17048515#5 17048515#6 17048515#7 17048515#8 17049217#0 17049217#1 17049217#2 17049217#3 386651501#0 386651501#1 386651503#0 386651503#1 386651503#2 386651503#3 386651497 386651499#0 386651499#1 386651499#2 386651499#3 386651499#4 386651499#5 480942911 17057714#0 17057714#1 130849483 130849484#0 130849484#1 386640444 386640443#0 386640443#1 386640443#2 386640443#3 -386640443#3"/>
    </vehicle>
    <vehicle id="71" depart="71.00">
        <route edges="16349602#1 -16349602#1 -16349602#0 -248000804 -579246841 16349605 16312176#5 16312176#0 386547254#0 386547254#1 -554531198#1 -554531198#0 -625801065 625801066#0 625801066#1 -17057976 -36768792#10 -36768792#9 -36768792#8 -36768792#7 -36768792#6 -36768792#5 -36768792#4 -36768792#3 -36768792#2 -36768792#1 -36768792#0 -17048515#8 -17048515#7 -17048515#6 -17048515#5 -17048515#4 -17048515#3 -17048515#2 -17048515#1 -17048515#0 17048314#0 17048314#1 17048314#2 -17057516#5 -17057516#4 -17057516#3 -17057516#2 -17057516#1 -17057516#0 -114854338#1 112238838#1 224630621#0 224630621#1 224630621#2 224630621#3 224630621#4 224630621#5 19200229#5 19200229#6 19200229#7 19200229#8 19200229#9 5021739 5021741#0"/>
    </vehicle>
    <vehicle id="73" depart="73.00">
        <route edges="17049217#2 -17049217#2 -17049217#1 -17049217#0 -17048515#8 -17048515#7 -17048515#6 -17048515#5 -17048515#4 -17048515#3 -17048515#2 -17048515#1 -17048515#0 17048314#0 17048314#1 17048314#2 -17057516#5 -17057516#4 -17057516#3 -17057516#2 -17057516#1 -17057516#0 -114854338#1 112238838#1 224630621#0 224630621#1 157736728 120171776#0 120171776#1 -120171776#1"/>
    </vehicle>
    <vehicle id="76" depart="76.00">
        <route edges="-19783815#0 19869440 579247070 19869203#1 579246842 -16349602#1 -16349602#0 -248000804 -579246841 16349605 16312176#5 16312176#0 386547254#0 386547254#1 -554531198#1 -554531198#0 -625801065 625801066#0 625801066#1 -17057976 -17057944 -17057947#2 -17057947#1 -17057947#0 17057759#0"/>
    </vehicle>
    <vehicle id="82" depart="82.00">
        <route edges="527582692#0 -527582692#0 -17057516#1 -17057516#0 -114854338#1 112238838#1 224630621#0 224630621#1 224630621#2"/>
    </vehicle>
    <vehicle id="87" depart="87.00">
        <route edges="4245711#0 4245711#1 224630614 224630617 579246839#0 579246839#1 181571583#0 8205850 16312176#0 386547254#0 386547254#1 -554531198#1 -554531198#0 -625801065 625801066#0 625801066#1 -17057976 -36768792#10 -36768792#9 -36768792#8 -36768792#7 -36768792#6 -36768792#5 -36768792#4 -36768792#3 -36768792#2 -36768792#1 -36768792#0 -17048515#8 -17048515#7 -17048515#6 -17048515#5 -17048515#4 -17048515#3 -17048515#2 -17048515#1 -17048515#0 17048314#0 17048314#1 17048314#2 -17057516#5 -17057516#4 -17057516#3 -17057516#2 -17057516#1 -17057516#0 -114854338#1"/>
    </vehicle>
    <vehicle id="89" depart="89.00">
        <route edges="181571579#0 181571579#1 224630618 224630620 579246843"/>
    </vehicle>
    <vehicle id="91" depart="91.00">
        <route edges="224630614 224630617 579246839#0 579246839#1 181571583#0 8205850 16312176#0 386547254#0 386547254#1 -554531198#1 -554531198#0 -625801065 625801066#0 625801066#1 -17057976 -36768792#10 -36768792#9 -36768792#8 -36768792#7 -36768792#6 -36768792#5 -36768792#4 -36768792#3 -36768792#2 -36768792#1 -36768792#0 -17048515#8 -17048515#7 -17048515#6 -17048515#5 -17048515#4 -17048515#3 -17048515#2 -17048515#1 -17048515#0 17048314#0 17048314#1 17048314#2 -17057516#5 -17057516#4 -17057516#3 -17057516#2 -17057516#1 -17057516#0 -114854338#1 112238838#1 224630621#0 224630621#1 224630621#2 224630621#3 224630621#4 224630621#5 19200229#5 19200229#6 19200229#7 19200229#8 19200229#9 5021740 -5021740"/>
    </vehicle>
    <vehicle id="93" depart="93.00">
        <route edges="36768792#4 36768792#5 36768792#6 36768792#7 36768792#8 36768792#9 36768792#10 17057976 625801064 625801065 554531198#0 554531198#1 579246844#0 579246844#1 16312176#2 16312176#3 386547256 579246841 248000804 16349602#0 16349602#1 386547249 19869203#3 96725216 16349078 181571587#1 181571587#2 181571579#0"/>
    </vehicle>
    <vehicle id="96" depart="96.00">
        <route edges="114928152#0 114928152#1 114928152#2 32501210#0"/>
    </vehicle>
    <vehicle id="97" depart="97.00">
        <route edges="-632007011"/>
    </vehicle>
    <vehicle id="98" depart="98.00">
        <route edges="5021741#0 -5021741#0 19200229#0 19200229#1 19200229#2 19200229#3 19200229#4 -224630621#5 -224630621#4 -224630621#3 -224630621#2 -224630621#1 -224630621#0 -112238838#1 114854338#1 17057516#0 17057516#1 17057516#2 17057516#3 17057516#4 17057516#5 -17048314#2 -17048314#1 -17048314#0 17048515#0 17048515#1 17048515#2 17048515#3 17048515#4 17048515#5 17048515#6 17048515#7 17048515#8 36768792#0 36768792#1 36768792#2 36768792#3 36768792#4 36768792#5 36768792#6 36768792#7 36768792#8 36768792#9 36768792#10 17057976 625801064 625801065 554531198#0 554531198#1 579246844#0 579246844#1 16312176#2 16312176#3 386547256 579246841 248000804 16349602#0 16349602#1 386547249 19869203#3 96725216 16349078 181571587#1 181571587#2 181571579#0 181571579#1 224630618 224630620 579246843"/>
    </vehicle>
</routes>
