<?xml version="1.0" encoding="UTF-8"?>

<!-- generated on Wed Dec 19 20:58:57 2018 by SUMO duarouter Version 0.30.0
<?xml version="1.0" encoding="UTF-8"?>

<configuration xmlns:xsi="http://www.w3.org/2001/XMLSchema-instance" xsi:noNamespaceSchemaLocation="duarouterConfiguration.xsd">

    <input>
        <net-file value="sussex.net.xml"/>
        <trip-files value="trips.trips.xml"/>
    </input>

    <output>
        <output-file value="sussex.rou.xml"/>
    </output>

    <processing>
        <ignore-errors value="true"/>
    </processing>

    <time>
        <begin value="0.0"/>
        <end value="100.0"/>
    </time>

    <report>
        <no-warnings value="true"/>
        <no-step-log value="true"/>
    </report>

</configuration>
-->


 
<routes>
   <vType id="vtype0" accel="4.6" decel="4.5" sigma="0.5" length="2.5" minGap="20" maxSpeed="20" color="1,1,0"/>
   
   <route id="route0" edges="4245711#1 224630614 224630617 579246839#0 579246839#1 181571583#0 8205850 16312176#0 386547254#0 386547254#1 -554531198#1 -554531198#0 -625801065 625801066#0 625801066#1 -17057976 -36768792#10 -36768792#9 -36768792#8 -36768792#7 -36768792#6 -36768792#5 -36768792#4 -36768792#3 -36768792#2 -36768792#1 -36768792#0 -17048515#8 -17048515#7 -17048515#6 -17048515#5 -17048515#4 -17048515#3 -17048515#2 -17048515#1 -17048515#0 17048314#0 17048314#1 17048314#2 -17057516#5 -17057516#4 -17057516#3 -17057516#2 -17057516#1 -17057516#0 -114854338#1 112238838#1 224630621#0 224630621#1 -224630621#1"/>
   
   <flow id="flow0" type="vtype0" route="route0" begin="10" period="15" number="100"/>
   
      <vType id="vtype1" accel="4.6" decel="4.5" sigma="0.5" length="2.5" minGap="20" maxSpeed="20" color="1,1,0"/>
   
  <route id="route1" edges="224630614 224630617 579246839#0 579246839#1 181571583#0 8205850 16312176#0 386547254#0 386547254#1 -554531198#1 -554531198#0 -625801065 625801066#0 625801066#1 -17057976 -36768792#10 -36768792#9 -36768792#8 -36768792#7 -36768792#6 -36768792#5 -36768792#4 -36768792#3 -36768792#2 -36768792#1 -36768792#0 -17048515#8 -17048515#7 -17048515#6 -17048515#5 -17048515#4 -17048515#3 -17048515#2 -17048515#1 -17048515#0 17048314#0 17048314#1 17048314#2 -17057516#5 -17057516#4 -17057516#3 -17057516#2 -17057516#1 -17057516#0 -114854338#1 112238838#1 224630621#0 224630621#1 224630621#2 224630621#3 224630621#4 224630621#5 19200229#5 19200229#6 19200229#7 19200229#8 19200229#9 5021740 -5021740"/>
   
   <flow id="flow1" type="vtype1" route="route1" begin="0" period="15" number="100"/>
   
    <vType id="vtype2" accel="4.6" decel="4.5" sigma="0.5" length="2.5" minGap="20" maxSpeed="20" color="1,1,0"/>
   
  <route id="route2" edges="-16349102 19869440 579247070 19869203#1 579246842 -16349602#1 -16349602#0 -248000804 -579246841 16349605 16312176#5 16312176#0 386547254#0 386547254#1 -554531198#1 -554531198#0 -625801065 625801066#0 625801066#1 -17057976 -36768792#10 -36768792#9 -36768792#8 -36768792#7 -36768792#6 -36768792#5 -36768792#4 -36768792#3 -36768792#2 -36768792#1 -36768792#0 -17048515#8 -17048515#7 -17048515#6 -17048515#5 -17048515#4 -17048515#3 -17048515#2 -17048515#1 -17048515#0 17048314#0 17048314#1 17048314#2 -17057516#5 -17057516#4 -17057516#3 -17057516#2 -17057516#1 -17057516#0 -114854338#1 112238838#1 224630621#0 224630621#1 157736728 120171776#0 120171776#1 120171776#2 120171776#3 120171776#4 131221206"/>
   
   <flow id="flow2" type="vtype2" route="route2" begin="0" period="15" number="100"/>
</routes>
