<?xml version="1.0" encoding="UTF-8"?>

<!-- generated on 12/01/19 19:31:39 by SUMO netconvert Version 0.32.0
<?xml version="1.0" encoding="UTF-8"?>

<configuration xmlns:xsi="http://www.w3.org/2001/XMLSchema-instance" xsi:noNamespaceSchemaLocation="http://sumo.dlr.de/xsd/netconvertConfiguration.xsd">

    <input>
        <osm-files value="london.osm"/>
    </input>

    <output>
        <output-file value="test.net.xml"/>
    </output>

    <projection>
        <proj.utm value="true"/>
    </projection>

</configuration>
-->

<net version="0.27" xmlns:xsi="http://www.w3.org/2001/XMLSchema-instance" xsi:noNamespaceSchemaLocation="http://sumo.dlr.de/xsd/net_file.xsd">

    <location netOffset="-701335.31,-5709091.78" convBoundary="0.00,0.00,1811.35,1599.55" origBoundary="-0.123143,51.497058,-0.072401,51.521528" projParameter="+proj=utm +zone=30 +ellps=WGS84 +datum=WGS84 +units=m +no_defs"/>

    <type id="highway.bridleway" priority="1" numLanes="1" speed="2.78" allow="pedestrian" oneway="1" width="2.00"/>
    <type id="highway.bus_guideway" priority="1" numLanes="1" speed="8.33" allow="bus" oneway="1"/>
    <type id="highway.cycleway" priority="1" numLanes="1" speed="5.56" allow="bicycle" oneway="0" width="1.00"/>
    <type id="highway.footway" priority="1" numLanes="1" speed="2.78" allow="pedestrian" oneway="1" width="2.00"/>
    <type id="highway.ford" priority="1" numLanes="1" speed="2.78" allow="army" oneway="0"/>
    <type id="highway.living_street" priority="3" numLanes="1" speed="2.78" disallow="tram rail_urban rail rail_electric ship" oneway="0"/>
    <type id="highway.motorway" priority="13" numLanes="2" speed="44.44" allow="private emergency authority army vip passenger hov taxi bus coach delivery truck trailer motorcycle evehicle custom1 custom2" oneway="1"/>
    <type id="highway.motorway_link" priority="12" numLanes="1" speed="22.22" allow="private emergency authority army vip passenger hov taxi bus coach delivery truck trailer motorcycle evehicle custom1 custom2" oneway="1"/>
    <type id="highway.path" priority="1" numLanes="1" speed="2.78" allow="bicycle pedestrian" oneway="1" width="2.00"/>
    <type id="highway.pedestrian" priority="1" numLanes="1" speed="2.78" allow="pedestrian" oneway="1" width="2.00"/>
    <type id="highway.primary" priority="9" numLanes="2" speed="27.78" disallow="tram rail_urban rail rail_electric ship" oneway="0"/>
    <type id="highway.primary_link" priority="8" numLanes="1" speed="22.22" disallow="tram rail_urban rail rail_electric ship" oneway="0"/>
    <type id="highway.raceway" priority="14" numLanes="2" speed="83.33" allow="vip" oneway="0"/>
    <type id="highway.residential" priority="4" numLanes="1" speed="13.89" disallow="tram rail_urban rail rail_electric ship" oneway="0"/>
    <type id="highway.secondary" priority="7" numLanes="2" speed="27.78" disallow="tram rail_urban rail rail_electric ship" oneway="0"/>
    <type id="highway.secondary_link" priority="6" numLanes="1" speed="22.22" disallow="tram rail_urban rail rail_electric ship" oneway="0"/>
    <type id="highway.service" priority="2" numLanes="1" speed="5.56" allow="delivery bicycle pedestrian" oneway="0"/>
    <type id="highway.services" priority="1" numLanes="1" speed="8.33" disallow="tram rail_urban rail rail_electric ship" oneway="0"/>
    <type id="highway.stairs" priority="1" numLanes="1" speed="1.39" allow="pedestrian" oneway="1" width="2.00"/>
    <type id="highway.step" priority="1" numLanes="1" speed="1.39" allow="pedestrian" oneway="1" width="2.00"/>
    <type id="highway.steps" priority="1" numLanes="1" speed="1.39" allow="pedestrian" oneway="1" width="2.00"/>
    <type id="highway.tertiary" priority="6" numLanes="1" speed="22.22" disallow="tram rail_urban rail rail_electric ship" oneway="0"/>
    <type id="highway.tertiary_link" priority="5" numLanes="1" speed="22.22" disallow="tram rail_urban rail rail_electric ship" oneway="0"/>
    <type id="highway.track" priority="1" numLanes="1" speed="5.56" disallow="tram rail_urban rail rail_electric ship" oneway="0"/>
    <type id="highway.trunk" priority="11" numLanes="2" speed="27.78" disallow="tram rail_urban rail rail_electric bicycle pedestrian ship" oneway="0"/>
    <type id="highway.trunk_link" priority="10" numLanes="1" speed="22.22" disallow="tram rail_urban rail rail_electric bicycle pedestrian ship" oneway="0"/>
    <type id="highway.unclassified" priority="5" numLanes="1" speed="13.89" disallow="tram rail_urban rail rail_electric ship" oneway="0"/>
    <type id="highway.unsurfaced" priority="1" numLanes="1" speed="8.33" disallow="tram rail_urban rail rail_electric ship" oneway="0"/>
    <type id="railway.light_rail" priority="15" numLanes="1" speed="27.78" allow="rail_urban" oneway="1"/>
    <type id="railway.preserved" priority="15" numLanes="1" speed="27.78" allow="rail" oneway="1"/>
    <type id="railway.rail" priority="15" numLanes="1" speed="83.33" allow="rail rail_electric" oneway="1"/>
    <type id="railway.subway" priority="15" numLanes="1" speed="27.78" allow="rail_urban" oneway="1"/>
    <type id="railway.tram" priority="15" numLanes="1" speed="13.89" allow="tram" oneway="1"/>

    <edge id=":1038349424_0" function="internal">
        <lane id=":1038349424_0_0" index="0" disallow="tram rail_urban rail rail_electric ship" speed="13.89" length="4.82" shape="305.18,1038.16 305.60,1036.74 306.26,1036.09 307.17,1036.24 308.33,1037.17"/>
    </edge>
    <edge id=":1055604618_0" function="internal">
        <lane id=":1055604618_0_0" index="0" allow="rail rail_electric" speed="83.33" length="27.66" shape="435.19,1183.40 436.09,1189.06 437.56,1197.04 439.22,1204.97 440.69,1210.49"/>
    </edge>
    <edge id=":1055604618_1" function="internal">
        <lane id=":1055604618_1_0" index="0" allow="rail rail_electric" speed="83.33" length="27.67" shape="431.82,1184.29 433.45,1189.77 436.06,1197.45 438.76,1205.09 440.69,1210.49"/>
    </edge>
    <edge id=":106272174_0" function="internal">
        <lane id=":106272174_0_0" index="0" allow="delivery bicycle pedestrian" speed="9.73" length="5.14" shape="309.96,1053.68 309.39,1052.44 308.54,1051.68 307.39,1051.39 305.96,1051.58"/>
    </edge>
    <edge id=":106272174_1" function="internal">
        <lane id=":106272174_1_0" index="0" disallow="tram rail_urban rail rail_electric ship" speed="13.89" length="9.54" shape="309.96,1053.68 307.20,1044.54"/>
    </edge>
    <edge id=":106272174_2" function="internal">
        <lane id=":106272174_2_0" index="0" disallow="tram rail_urban rail rail_electric ship" speed="13.89" length="2.41" shape="309.96,1053.68 310.41,1052.26 311.09,1051.63"/>
    </edge>
    <edge id=":106272174_9" function="internal">
        <lane id=":106272174_9_0" index="0" speed="13.89" length="2.41" shape="311.09,1051.63 312.00,1051.80 313.13,1052.76"/>
    </edge>
    <edge id=":106272174_3" function="internal">
        <lane id=":106272174_3_0" index="0" disallow="tram rail_urban rail rail_electric ship" speed="13.89" length="9.62" shape="310.35,1043.55 313.13,1052.76"/>
    </edge>
    <edge id=":106272174_4" function="internal">
        <lane id=":106272174_4_0" index="0" allow="delivery bicycle pedestrian" speed="9.73" length="5.39" shape="310.35,1043.55 310.82,1046.41 310.24,1048.71 310.16,1048.80"/>
    </edge>
    <edge id=":106272174_5" function="internal">
        <lane id=":106272174_5_0" index="0" disallow="tram rail_urban rail rail_electric ship" speed="13.89" length="2.41" shape="310.35,1043.55 309.93,1044.98 309.27,1045.62"/>
    </edge>
    <edge id=":106272174_10" function="internal">
        <lane id=":106272174_10_0" index="0" speed="9.73" length="5.14" shape="310.16,1048.80 308.62,1050.43 305.96,1051.58"/>
    </edge>
    <edge id=":106272174_11" function="internal">
        <lane id=":106272174_11_0" index="0" speed="13.89" length="2.41" shape="309.27,1045.62 308.36,1045.48 307.20,1044.54"/>
    </edge>
    <edge id=":106272174_6" function="internal">
        <lane id=":106272174_6_0" index="0" disallow="tram rail_urban rail rail_electric ship" speed="9.73" length="5.05" shape="305.10,1048.39 306.37,1047.84 307.15,1047.02 307.43,1045.92 307.20,1044.54"/>
    </edge>
    <edge id=":106272174_7" function="internal">
        <lane id=":106272174_7_0" index="0" disallow="tram rail_urban rail rail_electric ship" speed="9.73" length="10.39" shape="305.10,1048.39 307.96,1048.03 310.25,1048.63 311.97,1050.21 313.13,1052.76"/>
    </edge>
    <edge id=":106272174_8" function="internal">
        <lane id=":106272174_8_0" index="0" allow="delivery bicycle pedestrian" speed="5.56" length="4.82" shape="305.10,1048.39 306.51,1048.87 307.12,1049.55 306.94,1050.46 305.96,1051.58"/>
    </edge>
    <edge id=":106272509_0" function="internal">
        <lane id=":106272509_0_0" index="0" allow="delivery bicycle pedestrian" speed="5.56" length="4.82" shape="326.64,1177.93 326.00,1179.27 325.25,1179.80 324.37,1179.52 323.37,1178.41"/>
    </edge>
    <edge id=":106272516_0" function="internal">
        <lane id=":106272516_0_0" index="0" disallow="tram rail_urban rail rail_electric ship" speed="7.25" length="5.35" shape="327.81,1115.49 327.21,1114.10 326.34,1113.23 325.20,1112.87 323.80,1113.02"/>
    </edge>
    <edge id=":106272516_1" function="internal">
        <lane id=":106272516_1_0" index="0" disallow="tram rail_urban rail rail_electric ship" speed="9.73" length="9.85" shape="327.81,1115.49 325.10,1106.02"/>
    </edge>
    <edge id=":106272516_2" function="internal">
        <lane id=":106272516_2_0" index="0" disallow="tram rail_urban rail rail_electric ship" speed="9.73" length="10.78" shape="327.81,1115.49 327.41,1112.53 328.09,1110.23 329.84,1108.59 332.67,1107.62"/>
    </edge>
    <edge id=":106272516_3" function="internal">
        <lane id=":106272516_3_0" index="0" allow="delivery bicycle pedestrian" speed="5.56" length="4.82" shape="327.81,1115.49 328.27,1114.08 328.95,1113.45 329.85,1113.62 330.99,1114.59"/>
    </edge>
    <edge id=":106272516_4" function="internal">
        <lane id=":106272516_4_0" index="0" allow="delivery bicycle pedestrian" speed="9.73" length="5.11" shape="333.29,1110.86 331.95,1111.32 331.12,1112.09 330.80,1113.18 330.99,1114.59"/>
    </edge>
    <edge id=":106272516_5" function="internal">
        <lane id=":106272516_5_0" index="0" disallow="tram rail_urban rail rail_electric ship" speed="11.42" length="9.73" shape="333.29,1110.86 323.80,1113.02"/>
    </edge>
    <edge id=":106272516_6" function="internal">
        <lane id=":106272516_6_0" index="0" disallow="tram rail_urban rail rail_electric ship" speed="13.89" length="5.28" shape="333.29,1110.86 330.36,1111.01 328.13,1110.29"/>
    </edge>
    <edge id=":106272516_7" function="internal">
        <lane id=":106272516_7_0" index="0" disallow="tram rail_urban rail rail_electric ship" speed="13.89" length="2.41" shape="333.29,1110.86 331.92,1110.28 331.36,1109.55"/>
    </edge>
    <edge id=":106272516_16" function="internal">
        <lane id=":106272516_16_0" index="0" speed="13.89" length="5.36" shape="328.13,1110.29 328.02,1110.26 326.27,1108.59 325.10,1106.02"/>
    </edge>
    <edge id=":106272516_17" function="internal">
        <lane id=":106272516_17_0" index="0" speed="13.89" length="2.41" shape="331.36,1109.55 331.61,1108.66 332.67,1107.62"/>
    </edge>
    <edge id=":106272516_8" function="internal">
        <lane id=":106272516_8_0" index="0" disallow="tram rail_urban rail rail_electric ship" speed="13.89" length="5.67" shape="328.27,1105.10 328.89,1106.45 329.83,1107.32 331.09,1107.71 332.67,1107.62"/>
    </edge>
    <edge id=":106272516_9" function="internal">
        <lane id=":106272516_9_0" index="0" allow="delivery bicycle pedestrian" speed="9.73" length="9.87" shape="328.27,1105.10 330.99,1114.59"/>
    </edge>
    <edge id=":106272516_10" function="internal">
        <lane id=":106272516_10_0" index="0" disallow="tram rail_urban rail rail_electric ship" speed="11.42" length="10.42" shape="328.27,1105.10 328.66,1107.94 328.05,1110.20 326.43,1111.90 323.80,1113.02"/>
    </edge>
    <edge id=":106272516_11" function="internal">
        <lane id=":106272516_11_0" index="0" disallow="tram rail_urban rail rail_electric ship" speed="13.89" length="4.82" shape="328.27,1105.10 327.82,1106.52 327.14,1107.14 326.23,1106.98 325.10,1106.02"/>
    </edge>
    <edge id=":106272516_12" function="internal">
        <lane id=":106272516_12_0" index="0" disallow="tram rail_urban rail rail_electric ship" speed="11.42" length="5.02" shape="322.94,1109.84 324.21,1109.29 324.99,1108.48 325.29,1107.38 325.10,1106.02"/>
    </edge>
    <edge id=":106272516_13" function="internal">
        <lane id=":106272516_13_0" index="0" disallow="tram rail_urban rail rail_electric ship" speed="11.42" length="9.98" shape="322.94,1109.84 332.67,1107.62"/>
    </edge>
    <edge id=":106272516_14" function="internal">
        <lane id=":106272516_14_0" index="0" allow="delivery bicycle pedestrian" speed="7.25" length="5.49" shape="322.94,1109.84 325.78,1109.51 328.06,1110.19 328.25,1110.37"/>
    </edge>
    <edge id=":106272516_15" function="internal">
        <lane id=":106272516_15_0" index="0" disallow="tram rail_urban rail rail_electric ship" speed="8.94" length="2.53" shape="322.94,1109.84 324.35,1110.31 324.97,1111.00 324.94,1111.12"/>
    </edge>
    <edge id=":106272516_18" function="internal">
        <lane id=":106272516_18_0" index="0" speed="7.25" length="5.13" shape="328.25,1110.37 329.80,1111.88 330.99,1114.59"/>
    </edge>
    <edge id=":106272516_19" function="internal">
        <lane id=":106272516_19_0" index="0" speed="8.94" length="2.29" shape="324.94,1111.12 324.78,1111.91 323.80,1113.02"/>
    </edge>
    <edge id=":107627_0" function="internal">
        <lane id=":107627_0_0" index="0" disallow="tram rail_urban rail rail_electric ship" speed="8.94" length="4.82" shape="915.06,1556.96 914.17,1558.15 913.32,1558.51 912.52,1558.06 911.77,1556.77"/>
    </edge>
    <edge id=":107632_0" function="internal">
        <lane id=":107632_0_0" index="0" disallow="tram rail_urban rail rail_electric ship" speed="8.94" length="9.47" shape="812.69,1509.19 810.78,1499.93"/>
        <lane id=":107632_0_1" index="1" disallow="tram rail_urban rail rail_electric ship" speed="8.94" length="9.47" shape="815.93,1508.53 814.00,1499.25"/>
    </edge>
    <edge id=":107632_2" function="internal">
        <lane id=":107632_2_0" index="0" disallow="tram rail_urban rail rail_electric ship" speed="8.94" length="7.85" shape="815.93,1508.53 815.56,1505.76 815.74,1503.68 816.45,1502.30 817.69,1501.62"/>
    </edge>
    <edge id=":107632_3" function="internal">
        <lane id=":107632_3_0" index="0" disallow="tram rail_urban rail rail_electric ship" speed="8.94" length="7.87" shape="818.40,1504.84 816.98,1504.75 815.77,1503.78 814.78,1501.95 814.00,1499.25"/>
    </edge>
    <edge id=":107632_4" function="internal">
        <lane id=":107632_4_0" index="0" disallow="tram rail_urban rail rail_electric ship" speed="8.94" length="4.82" shape="818.40,1504.84 817.02,1504.30 816.43,1503.59 816.66,1502.69 817.69,1501.62"/>
    </edge>
    <edge id=":107633_0" function="internal">
        <lane id=":107633_0_0" index="0" disallow="tram rail_urban rail rail_electric ship" speed="8.94" length="0.10" shape="801.07,1454.17 801.06,1454.08"/>
        <lane id=":107633_0_1" index="1" disallow="tram rail_urban rail rail_electric ship" speed="8.94" length="0.10" shape="804.30,1453.48 804.32,1453.57"/>
    </edge>
    <edge id=":108835_0" function="internal">
        <lane id=":108835_0_0" index="0" disallow="tram rail_urban rail rail_electric ship" speed="8.94" length="0.29" shape="784.73,1358.10 784.68,1357.84"/>
        <lane id=":108835_0_1" index="1" disallow="tram rail_urban rail rail_electric ship" speed="8.94" length="0.29" shape="787.98,1357.53 787.92,1357.22"/>
    </edge>
    <edge id=":108842_0" function="internal">
        <lane id=":108842_0_0" index="0" disallow="tram rail_urban rail rail_electric ship" speed="13.89" length="4.82" shape="692.67,1358.66 693.23,1357.28 693.95,1356.71 694.84,1356.95 695.90,1358.00"/>
    </edge>
    <edge id=":108844_0" function="internal">
        <lane id=":108844_0_0" index="0" disallow="tram rail_urban rail rail_electric ship" speed="13.89" length="4.82" shape="545.63,1384.77 546.14,1383.37 546.85,1382.78 547.75,1382.99 548.84,1384.00"/>
    </edge>
    <edge id=":108845_0" function="internal">
        <lane id=":108845_0_0" index="0" disallow="tram rail_urban rail rail_electric ship" speed="13.89" length="4.82" shape="476.70,1401.88 477.23,1400.50 477.95,1399.91 478.84,1400.13 479.92,1401.16"/>
    </edge>
    <edge id=":109412_0" function="internal">
        <lane id=":109412_0_0" index="0" disallow="tram rail_urban rail rail_electric ship" speed="8.94" length="4.82" shape="234.87,1551.49 233.48,1550.96 232.90,1550.25 233.11,1549.35 234.13,1548.27"/>
    </edge>
    <edge id=":109737_0" function="internal">
        <lane id=":109737_0_0" index="0" disallow="tram rail_urban rail rail_electric ship" speed="13.41" length="9.83" shape="580.08,1498.56 577.26,1499.47 575.31,1500.05 573.34,1500.54 570.45,1501.18"/>
        <lane id=":109737_0_1" index="1" disallow="tram rail_urban rail rail_electric ship" speed="13.41" length="9.83" shape="579.07,1495.42 576.34,1496.30 574.45,1496.86 572.55,1497.34 569.74,1497.95"/>
    </edge>
    <edge id=":109737_2" function="internal">
        <lane id=":109737_2_0" index="0" disallow="tram rail_urban rail rail_electric ship" speed="13.65" length="8.07" shape="579.07,1495.42 576.29,1496.10 574.20,1496.09 572.78,1495.41 572.03,1494.06"/>
    </edge>
    <edge id=":109737_3" function="internal">
        <lane id=":109737_3_0" index="0" disallow="tram rail_urban rail rail_electric ship" speed="13.65" length="8.04" shape="575.24,1493.28 575.19,1494.81 574.26,1496.10 572.45,1497.15 569.74,1497.95"/>
    </edge>
    <edge id=":109737_4" function="internal">
        <lane id=":109737_4_0" index="0" disallow="tram rail_urban rail rail_electric ship" speed="13.89" length="4.82" shape="575.24,1493.28 574.73,1494.68 574.02,1495.27 573.12,1495.07 572.03,1494.06"/>
    </edge>
    <edge id=":109746_0" function="internal">
        <lane id=":109746_0_0" index="0" disallow="tram rail_urban rail rail_electric ship" speed="8.94" length="0.23" shape="344.48,1435.16 344.42,1434.97"/>
        <lane id=":109746_0_1" index="1" disallow="tram rail_urban rail rail_electric ship" speed="8.94" length="0.23" shape="347.64,1434.21 347.57,1433.97"/>
    </edge>
    <edge id=":109746_2" function="internal">
        <lane id=":109746_2_0" index="0" disallow="tram rail_urban rail rail_electric ship" speed="8.94" length="2.41" shape="347.64,1434.21 348.08,1432.79 348.75,1432.16"/>
    </edge>
    <edge id=":109746_6" function="internal">
        <lane id=":109746_6_0" index="0" speed="8.94" length="2.41" shape="348.75,1432.16 349.66,1432.31 350.80,1433.26"/>
    </edge>
    <edge id=":109746_3" function="internal">
        <lane id=":109746_3_0" index="0" disallow="tram rail_urban rail rail_electric ship" speed="8.94" length="0.34" shape="353.85,1431.96 353.96,1432.31"/>
        <lane id=":109746_3_1" index="1" disallow="tram rail_urban rail rail_electric ship" speed="8.94" length="0.34" shape="350.71,1432.96 350.80,1433.26"/>
    </edge>
    <edge id=":109746_5" function="internal">
        <lane id=":109746_5_0" index="0" disallow="tram rail_urban rail rail_electric ship" speed="8.94" length="2.41" shape="350.71,1432.96 350.30,1434.39 349.64,1435.04"/>
    </edge>
    <edge id=":109746_7" function="internal">
        <lane id=":109746_7_0" index="0" speed="8.94" length="2.41" shape="349.64,1435.04 348.73,1434.90 347.57,1433.97"/>
    </edge>
    <edge id=":1186508405_0" function="internal">
        <lane id=":1186508405_0_0" index="0" disallow="tram rail_urban rail rail_electric ship" speed="8.94" length="4.82" shape="606.09,1555.55 606.02,1557.03 605.53,1557.81 604.61,1557.88 603.27,1557.25"/>
    </edge>
    <edge id=":1260050001_0" function="internal">
        <lane id=":1260050001_0_0" index="0" allow="rail_urban" speed="27.78" length="0.10" shape="815.31,1332.23 815.31,1332.23"/>
    </edge>
    <edge id=":1272828364_0" function="internal">
        <lane id=":1272828364_0_0" index="0" allow="rail rail_electric" speed="83.33" length="3.05" shape="464.09,1259.30 463.99,1258.40 463.91,1257.79 463.80,1257.18 463.61,1256.29"/>
    </edge>
    <edge id=":1272828374_0" function="internal">
        <lane id=":1272828374_0_0" index="0" allow="rail rail_electric" speed="83.33" length="0.15" shape="460.86,1192.95 460.91,1192.80"/>
    </edge>
    <edge id=":1272828374_2" function="internal">
        <lane id=":1272828374_2_0" index="0" speed="83.33" length="0.34" shape="460.91,1192.80 460.98,1192.74 461.07,1192.76 461.18,1192.86"/>
    </edge>
    <edge id=":1272828374_1" function="internal">
        <lane id=":1272828374_1_0" index="0" allow="rail rail_electric" speed="83.33" length="3.08" shape="460.37,1189.88 461.18,1192.86"/>
    </edge>
    <edge id=":1272829384_0" function="internal">
        <lane id=":1272829384_0_0" index="0" allow="rail rail_electric" speed="83.33" length="0.28" shape="490.97,1322.25 490.90,1321.98"/>
    </edge>
    <edge id=":1272829386_0" function="internal">
        <lane id=":1272829386_0_0" index="0" allow="rail rail_electric" speed="83.33" length="0.27" shape="476.50,1304.78 476.56,1305.04"/>
    </edge>
    <edge id=":1272829387_0" function="internal">
        <lane id=":1272829387_0_0" index="0" allow="rail rail_electric" speed="83.33" length="0.29" shape="482.41,1303.18 482.34,1302.90"/>
    </edge>
    <edge id=":1272829388_0" function="internal">
        <lane id=":1272829388_0_0" index="0" allow="rail rail_electric" speed="83.33" length="0.30" shape="472.90,1306.26 472.82,1305.97"/>
    </edge>
    <edge id=":1272829389_0" function="internal">
        <lane id=":1272829389_0_0" index="0" allow="rail rail_electric" speed="83.33" length="27.21" shape="488.71,1313.17 481.62,1286.90"/>
    </edge>
    <edge id=":1272829389_1" function="internal">
        <lane id=":1272829389_1_0" index="0" allow="rail rail_electric" speed="83.33" length="23.08" shape="488.71,1313.17 487.79,1308.25 486.89,1301.79 486.10,1295.31 485.49,1290.33"/>
    </edge>
    <edge id=":1272829391_0" function="internal">
        <lane id=":1272829391_0_0" index="0" allow="rail rail_electric" speed="83.33" length="0.10" shape="500.14,1320.85 500.14,1320.85"/>
    </edge>
    <edge id=":1272829392_0" function="internal">
        <lane id=":1272829392_0_0" index="0" allow="rail rail_electric" speed="83.33" length="0.10" shape="497.46,1322.77 497.46,1322.77"/>
    </edge>
    <edge id=":1515111675_0" function="internal">
        <lane id=":1515111675_0_0" index="0" disallow="tram rail_urban rail rail_electric ship" speed="8.94" length="5.09" shape="275.26,1218.86 273.63,1214.08"/>
        <lane id=":1515111675_0_1" index="1" disallow="tram rail_urban rail rail_electric ship" speed="8.94" length="5.09" shape="278.40,1217.83 276.74,1212.98"/>
    </edge>
    <edge id=":1515111675_2" function="internal">
        <lane id=":1515111675_2_0" index="0" disallow="tram rail_urban rail rail_electric ship" speed="8.94" length="2.41" shape="278.40,1217.83 278.80,1216.40 279.45,1215.75"/>
    </edge>
    <edge id=":1515111675_6" function="internal">
        <lane id=":1515111675_6_0" index="0" speed="8.94" length="2.41" shape="279.45,1215.75 280.36,1215.89 281.53,1216.80"/>
    </edge>
    <edge id=":1515111675_3" function="internal">
        <lane id=":1515111675_3_0" index="0" disallow="tram rail_urban rail rail_electric ship" speed="8.94" length="5.25" shape="282.96,1210.77 284.67,1215.78"/>
        <lane id=":1515111675_3_1" index="1" disallow="tram rail_urban rail rail_electric ship" speed="8.94" length="5.25" shape="279.85,1211.88 281.53,1216.80"/>
    </edge>
    <edge id=":1515111675_5" function="internal">
        <lane id=":1515111675_5_0" index="0" disallow="tram rail_urban rail rail_electric ship" speed="8.94" length="2.41" shape="279.85,1211.88 279.48,1213.32 278.85,1213.98"/>
    </edge>
    <edge id=":1515111675_7" function="internal">
        <lane id=":1515111675_7_0" index="0" speed="8.94" length="2.41" shape="278.85,1213.98 277.93,1213.87 276.74,1212.98"/>
    </edge>
    <edge id=":1536053082_0" function="internal">
        <lane id=":1536053082_0_0" index="0" allow="rail rail_electric" speed="83.33" length="2.82" shape="469.86,1222.16 470.67,1224.86"/>
    </edge>
    <edge id=":1536053084_0" function="internal">
        <lane id=":1536053084_0_0" index="0" allow="rail rail_electric" speed="83.33" length="1.90" shape="463.89,1223.42 464.07,1224.10 464.18,1224.33 464.20,1224.09 464.14,1223.39"/>
    </edge>
    <edge id=":1536053084_1" function="internal">
        <lane id=":1536053084_1_0" index="0" allow="rail rail_electric" speed="83.33" length="2.94" shape="463.89,1223.42 464.64,1226.26"/>
    </edge>
    <edge id=":1536948431_0" function="internal">
        <lane id=":1536948431_0_0" index="0" disallow="tram rail_urban rail rail_electric ship" speed="13.41" length="0.30" shape="569.99,1501.28 569.70,1501.34"/>
        <lane id=":1536948431_0_1" index="1" disallow="tram rail_urban rail rail_electric ship" speed="13.41" length="0.30" shape="569.29,1498.05 568.99,1498.12"/>
    </edge>
    <edge id=":1536948529_0" function="internal">
        <lane id=":1536948529_0_0" index="0" disallow="tram rail_urban rail rail_electric ship" speed="13.41" length="3.37" shape="509.30,1519.88 511.80,1517.61"/>
    </edge>
    <edge id=":1536948541_0" function="internal">
        <lane id=":1536948541_0_0" index="0" disallow="tram rail_urban rail rail_electric ship" speed="10.87" length="0.10" shape="570.69,1504.38 570.69,1504.38"/>
    </edge>
    <edge id=":1536948646_0" function="internal">
        <lane id=":1536948646_0_0" index="0" disallow="tram rail_urban rail rail_electric ship" speed="13.41" length="0.28" shape="509.65,1514.60 509.34,1514.66"/>
        <lane id=":1536948646_0_1" index="1" disallow="tram rail_urban rail rail_electric ship" speed="13.41" length="0.28" shape="508.90,1511.38 508.66,1511.44"/>
    </edge>
    <edge id=":1556260011_0" function="internal">
        <lane id=":1556260011_0_0" index="0" allow="delivery bicycle pedestrian" speed="5.56" length="4.82" shape="878.49,1371.60 879.11,1370.25 879.87,1369.72 880.74,1370.00 881.75,1371.09"/>
    </edge>
    <edge id=":1556260235_0" function="internal">
        <lane id=":1556260235_0_0" index="0" disallow="tram rail_urban rail rail_electric ship" speed="8.94" length="4.82" shape="949.92,1505.30 951.25,1505.97 951.76,1506.73 951.45,1507.60 950.33,1508.58"/>
    </edge>
    <edge id=":1561071647_0" function="internal">
        <lane id=":1561071647_0_0" index="0" disallow="tram rail_urban rail rail_electric ship" speed="13.41" length="4.97" shape="933.29,1409.86 928.39,1410.60"/>
        <lane id=":1561071647_0_1" index="1" disallow="tram rail_urban rail rail_electric ship" speed="13.41" length="4.97" shape="932.81,1406.60 927.88,1407.34"/>
    </edge>
    <edge id=":1569312412_0" function="internal">
        <lane id=":1569312412_0_0" index="0" disallow="tram rail_urban rail rail_electric ship" speed="8.94" length="3.59" shape="702.74,1532.80 701.69,1529.37"/>
    </edge>
    <edge id=":1569312412_1" function="internal">
        <lane id=":1569312412_1_0" index="0" disallow="tram rail_urban rail rail_electric ship" speed="8.94" length="2.41" shape="702.74,1532.80 703.14,1531.37 703.80,1530.72"/>
    </edge>
    <edge id=":1569312412_4" function="internal">
        <lane id=":1569312412_4_0" index="0" speed="8.94" length="2.41" shape="703.80,1530.72 704.71,1530.86 705.87,1531.78"/>
    </edge>
    <edge id=":1569312412_2" function="internal">
        <lane id=":1569312412_2_0" index="0" disallow="tram rail_urban rail rail_electric ship" speed="8.94" length="3.50" shape="704.86,1528.43 705.87,1531.78"/>
    </edge>
    <edge id=":1569312412_3" function="internal">
        <lane id=":1569312412_3_0" index="0" disallow="tram rail_urban rail rail_electric ship" speed="8.94" length="2.41" shape="704.86,1528.43 704.42,1529.85 703.74,1530.48"/>
    </edge>
    <edge id=":1569312412_5" function="internal">
        <lane id=":1569312412_5_0" index="0" speed="8.94" length="2.41" shape="703.74,1530.48 702.83,1530.32 701.69,1529.37"/>
    </edge>
    <edge id=":1662606935_0" function="internal">
        <lane id=":1662606935_0_0" index="0" disallow="tram rail_urban rail rail_electric ship" speed="8.94" length="2.58" shape="247.83,1121.87 245.29,1122.31"/>
    </edge>
    <edge id=":1662606935_1" function="internal">
        <lane id=":1662606935_1_0" index="0" disallow="tram rail_urban rail rail_electric ship" speed="8.94" length="4.82" shape="247.83,1121.87 246.50,1121.21 245.99,1120.45 246.29,1119.57 247.41,1118.60"/>
    </edge>
    <edge id=":1662606935_2" function="internal">
        <lane id=":1662606935_2_0" index="0" disallow="tram rail_urban rail rail_electric ship" speed="8.94" length="2.86" shape="244.59,1119.08 247.41,1118.60"/>
    </edge>
    <edge id=":1662606935_3" function="internal">
        <lane id=":1662606935_3_0" index="0" disallow="tram rail_urban rail rail_electric ship" speed="8.94" length="4.82" shape="244.59,1119.08 245.98,1119.63 246.55,1120.35 246.33,1121.24 245.29,1122.31"/>
    </edge>
    <edge id=":1678226827_0" function="internal">
        <lane id=":1678226827_0_0" index="0" disallow="tram rail_urban rail rail_electric ship" speed="8.94" length="5.14" shape="820.17,1545.73 819.04,1540.65"/>
        <lane id=":1678226827_0_1" index="1" disallow="tram rail_urban rail rail_electric ship" speed="8.94" length="5.14" shape="823.38,1544.95 822.28,1540.00"/>
    </edge>
    <edge id=":1678226846_0" function="internal">